  Page 1                                    Fri Jan 09 01:51:41 2026

  ******************************************************************
  *                           E P A N E T                          *
  *                   Hydraulic and Water Quality                  *
  *                   Analysis for Pipe Networks                   *
  *                         Version 2.2                            *
  ******************************************************************
  
  Analysis begun Fri Jan 09 01:51:41 2026

   
  Hydraulic Status:
  -----------------------------------------------------------------------
     0:00:00: Balancing the network:

              Trial  1: relative flow change = 0.998969
              PRV PRV-1 switched from active to closed
              PRV PRV-2 switched from active to closed
              Trial  2: relative flow change = 3.875191
              PRV PRV-1 switched from closed to active
              PRV PRV-2 switched from closed to active
              PRV PRV-3 switched from active to open
              Pump PUMP_1 switched from open to closed
              Trial  3: relative flow change = 1.055349
              PRV PRV-3 switched from open to active
              Trial  4: relative flow change = 0.560240
              PRV PRV-3 switched from active to open
              Pump PUMP_1 switched from closed to open
              Trial  5: relative flow change = 0.699835
              Trial  6: relative flow change = 0.521575
              Trial  7: relative flow change = 0.301366
              Trial  8: relative flow change = 0.176321
              Trial  9: relative flow change = 0.092444
              PRV PRV-3 switched from open to active
              Trial 10: relative flow change = 0.040937
              Trial 11: relative flow change = 0.014797
              Trial 12: relative flow change = 0.002836
                        maximum  flow change = 3.5170 for Link PRV-2
                        maximum  head error  = 0.2516 for Link PUMP_1

     0:00:00: Balanced after 12 trials
     0:00:00: Reservoir R1 is emptying
     0:00:00: Reservoir R2 is emptying
     0:00:00: Tank T1 is emptying at 3.50 m
   
     0:05:00: Balancing the network:

              Trial  1: relative flow change = 0.001380
                        maximum  flow change = 0.8038 for Link p110
                        maximum  head error  = 0.0000 for Link p319

     0:05:00: Balanced after 1 trials
   
     0:10:00: Balancing the network:

              Trial  1: relative flow change = 0.001388
                        maximum  flow change = 0.8246 for Link p235
                        maximum  head error  = 0.0001 for Link PUMP_1

     0:10:00: Balanced after 1 trials
   
     0:15:00: Balancing the network:

              Trial  1: relative flow change = 0.001377
                        maximum  flow change = 0.8387 for Link p235
                        maximum  head error  = 0.0001 for Link PUMP_1

     0:15:00: Balanced after 1 trials
   
     0:20:00: Balancing the network:

              Trial  1: relative flow change = 0.001352
                        maximum  flow change = 0.8307 for Link p235
                        maximum  head error  = 0.0001 for Link PUMP_1

     0:20:00: Balanced after 1 trials
   
     0:25:00: Balancing the network:

              Trial  1: relative flow change = 0.001328
                        maximum  flow change = 0.8139 for Link p235
                        maximum  head error  = 0.0001 for Link PUMP_1

     0:25:00: Balanced after 1 trials
   
     0:30:00: Balancing the network:

              Trial  1: relative flow change = 0.001315
                        maximum  flow change = 0.7988 for Link p235
                        maximum  head error  = 0.0001 for Link PUMP_1

     0:30:00: Balanced after 1 trials
   
     0:35:00: Balancing the network:

              Trial  1: relative flow change = 0.001307
                        maximum  flow change = 0.7909 for Link p235
                        maximum  head error  = 0.0001 for Link PUMP_1

     0:35:00: Balanced after 1 trials
   
     0:40:00: Balancing the network:

              Trial  1: relative flow change = 0.001313
                        maximum  flow change = 0.7863 for Link p235
                        maximum  head error  = 0.0001 for Link PUMP_1

     0:40:00: Balanced after 1 trials
   
     0:45:00: Balancing the network:

              Trial  1: relative flow change = 0.001314
                        maximum  flow change = 0.7920 for Link p235
                        maximum  head error  = 0.0001 for Link PUMP_1

     0:45:00: Balanced after 1 trials
   
     0:50:00: Balancing the network:

              Trial  1: relative flow change = 0.001308
                        maximum  flow change = 0.7914 for Link p235
                        maximum  head error  = 0.0001 for Link PUMP_1

     0:50:00: Balanced after 1 trials
   
     0:55:00: Balancing the network:

              Trial  1: relative flow change = 0.001286
                        maximum  flow change = 0.7868 for Link p235
                        maximum  head error  = 0.0001 for Link PUMP_1

     0:55:00: Balanced after 1 trials
   
     1:00:00: Balancing the network:

              Trial  1: relative flow change = 0.001256
                        maximum  flow change = 0.7692 for Link p235
                        maximum  head error  = 0.0001 for Link PUMP_1

     1:00:00: Balanced after 1 trials
   
     1:05:00: Balancing the network:

              Trial  1: relative flow change = 0.001210
                        maximum  flow change = 0.7473 for Link p235
                        maximum  head error  = 0.0001 for Link PUMP_1

     1:05:00: Balanced after 1 trials
   
     1:10:00: Balancing the network:

              Trial  1: relative flow change = 0.001165
                        maximum  flow change = 0.7136 for Link p235
                        maximum  head error  = 0.0001 for Link PUMP_1

     1:10:00: Balanced after 1 trials
   
     1:15:00: Balancing the network:

              Trial  1: relative flow change = 0.001129
                        maximum  flow change = 0.7058 for Link p239
                        maximum  head error  = 0.0001 for Link PUMP_1

     1:15:00: Balanced after 1 trials
   
     1:20:00: Balancing the network:

              Trial  1: relative flow change = 0.001106
                        maximum  flow change = 0.7020 for Link p239
                        maximum  head error  = 0.0001 for Link PUMP_1

     1:20:00: Balanced after 1 trials
   
     1:25:00: Balancing the network:

              Trial  1: relative flow change = 0.001093
                        maximum  flow change = 0.6985 for Link p239
                        maximum  head error  = 0.0001 for Link PUMP_1

     1:25:00: Balanced after 1 trials
   
     1:30:00: Balancing the network:

              Trial  1: relative flow change = 0.001093
                        maximum  flow change = 0.6967 for Link p239
                        maximum  head error  = 0.0001 for Link PUMP_1

     1:30:00: Balanced after 1 trials
   
     1:35:00: Balancing the network:

              Trial  1: relative flow change = 0.001092
                        maximum  flow change = 0.6949 for Link p239
                        maximum  head error  = 0.0001 for Link PUMP_1

     1:35:00: Balanced after 1 trials
   
     1:40:00: Balancing the network:

              Trial  1: relative flow change = 0.001081
                        maximum  flow change = 0.6908 for Link p239
                        maximum  head error  = 0.0001 for Link PUMP_1

     1:40:00: Balanced after 1 trials
   
     1:45:00: Balancing the network:

              Trial  1: relative flow change = 0.001055
                        maximum  flow change = 0.6849 for Link p239
                        maximum  head error  = 0.0001 for Link PUMP_1

     1:45:00: Balanced after 1 trials
   
     1:50:00: Balancing the network:

              Trial  1: relative flow change = 0.001011
                        maximum  flow change = 0.6772 for Link p239
                        maximum  head error  = 0.0001 for Link PUMP_1

     1:50:00: Balanced after 1 trials
   
     1:55:00: Balancing the network:

              Trial  1: relative flow change = 0.000951
                        maximum  flow change = 0.6678 for Link p239
                        maximum  head error  = 0.0001 for Link PUMP_1

     1:55:00: Balanced after 1 trials
   
     2:00:00: Balancing the network:

              Trial  1: relative flow change = 0.000872
                        maximum  flow change = 0.6558 for Link p239
                        maximum  head error  = 0.0001 for Link PUMP_1

     2:00:00: Balanced after 1 trials
   
     2:05:00: Balancing the network:

              Trial  1: relative flow change = 0.000798
                        maximum  flow change = 0.6454 for Link p239
                        maximum  head error  = 0.0001 for Link PUMP_1

     2:05:00: Balanced after 1 trials
   
     2:10:00: Balancing the network:

              Trial  1: relative flow change = 0.000732
                        maximum  flow change = 0.6365 for Link p239
                        maximum  head error  = 0.0001 for Link PUMP_1

     2:10:00: Balanced after 1 trials
   
     2:15:00: Balancing the network:

              Trial  1: relative flow change = 0.000678
                        maximum  flow change = 0.6287 for Link p239
                        maximum  head error  = 0.0001 for Link PUMP_1

     2:15:00: Balanced after 1 trials
   
     2:20:00: Balancing the network:

              Trial  1: relative flow change = 0.000647
                        maximum  flow change = 0.6242 for Link p239
                        maximum  head error  = 0.0001 for Link PUMP_1

     2:20:00: Balanced after 1 trials
   
     2:25:00: Balancing the network:

              Trial  1: relative flow change = 0.000634
                        maximum  flow change = 0.6215 for Link p239
                        maximum  head error  = 0.0001 for Link PUMP_1

     2:25:00: Balanced after 1 trials
   
     2:29:29: Balancing the network:

              Trial  1: relative flow change = 0.000238
                        maximum  flow change = 0.4949 for Node n31
                        maximum  head error  = 0.0000 for Link PUMP_1

              Pipe p239 switched from open to closed
              Trial  2: relative flow change = 0.119197
              Trial  3: relative flow change = 0.000449
                        maximum  flow change = 0.7304 for Link p26
                        maximum  head error  = 0.0006 for Link p29

     2:29:29: Balanced after 3 trials
     2:29:29: Tank T1 is filling at 0.00 m
     2:29:29: Pipe p239 changed from open to temporarily closed
   
  WARNING: Negative pressures at 2:29:29 hrs.
   
     2:30:00: Balancing the network:

              Trial  1: relative flow change = 0.000531
                        maximum  flow change = 0.3022 for Link p110
                        maximum  head error  = 0.0000 for Link p29

              Pipe p239 switched from closed to open
              Trial  2: relative flow change = 0.681246
              Trial  3: relative flow change = 0.576582
              Trial  4: relative flow change = 0.356172
              Trial  5: relative flow change = 0.186732
              Trial  6: relative flow change = 0.079316
              Trial  7: relative flow change = 0.022501
              Trial  8: relative flow change = 0.002544
                        maximum  flow change = 8.0239 for Node n31
                        maximum  head error  = 0.0163 for Link p320

     2:30:00: Balanced after 8 trials
     2:30:00: Tank T1 is emptying at 0.00 m
     2:30:00: Pipe p239 changed from temporarily closed to open
   
     2:30:05: Balancing the network:

              Trial  1: relative flow change = 0.000048
                        maximum  flow change = 0.1564 for Link p319
                        maximum  head error  = 0.0000 for Link p320

              Pipe p239 switched from open to closed
              Trial  2: relative flow change = 0.119198
              Trial  3: relative flow change = 0.000443
                        maximum  flow change = 0.7201 for Link p29
                        maximum  head error  = 0.0006 for Link p29

     2:30:05: Balanced after 3 trials
     2:30:05: Tank T1 is filling at -0.00 m
     2:30:05: Pipe p239 changed from open to temporarily closed
   
  WARNING: Negative pressures at 2:30:05 hrs.
   
     2:35:00: Balancing the network:

              Trial  1: relative flow change = 0.000543
                        maximum  flow change = 0.3104 for Link p110
                        maximum  head error  = 0.0000 for Link p29

              Pipe p239 switched from closed to open
              Trial  2: relative flow change = 0.684205
              Trial  3: relative flow change = 0.580665
              Trial  4: relative flow change = 0.359715
              Trial  5: relative flow change = 0.189155
              Trial  6: relative flow change = 0.080719
              Trial  7: relative flow change = 0.023180
              Trial  8: relative flow change = 0.002692
                        maximum  flow change = 8.4963 for Node n31
                        maximum  head error  = 0.0184 for Link p320

     2:35:00: Balanced after 8 trials
     2:35:00: Tank T1 is emptying at 0.02 m
     2:35:00: Pipe p239 changed from temporarily closed to open
   
     2:35:41: Balancing the network:

              Trial  1: relative flow change = 0.000069
                        maximum  flow change = 0.2301 for Node n31
                        maximum  head error  = 0.0000 for Link p320

     2:35:41: Balanced after 1 trials
   
     2:40:00: Balancing the network:

              Trial  1: relative flow change = 0.000441
                        maximum  flow change = 0.3119 for Link p110
                        maximum  head error  = 0.0000 for Link p535

              Pipe p239 switched from open to closed
              Trial  2: relative flow change = 0.119295
              Trial  3: relative flow change = 0.000434
                        maximum  flow change = 0.6998 for Link p26
                        maximum  head error  = 0.0006 for Link p29

     2:40:00: Balanced after 3 trials
     2:40:00: Tank T1 is filling at 0.00 m
     2:40:00: Pipe p239 changed from open to temporarily closed
   
  WARNING: Negative pressures at 2:40:00 hrs.
   
     2:45:00: Balancing the network:

              Trial  1: relative flow change = 0.000546
                        maximum  flow change = 0.3143 for Link p110
                        maximum  head error  = 0.0000 for Link p29

              Pipe p239 switched from closed to open
              Trial  2: relative flow change = 0.689929
              Trial  3: relative flow change = 0.588625
              Trial  4: relative flow change = 0.366687
              Trial  5: relative flow change = 0.193949
              Trial  6: relative flow change = 0.083513
              Trial  7: relative flow change = 0.024548
              Trial  8: relative flow change = 0.003000
                        maximum  flow change = 9.4859 for Node n31
                        maximum  head error  = 0.0231 for Link p320

     2:45:00: Balanced after 8 trials
     2:45:00: Tank T1 is emptying at 0.02 m
     2:45:00: Pipe p239 changed from temporarily closed to open
   
     2:45:42: Balancing the network:

              Trial  1: relative flow change = 0.000081
                        maximum  flow change = 0.2705 for Link p239
                        maximum  head error  = 0.0000 for Link p320

     2:45:42: Balanced after 1 trials
   
     2:50:00: Balancing the network:

              Trial  1: relative flow change = 0.000431
                        maximum  flow change = 0.3062 for Link p110
                        maximum  head error  = 0.0000 for Link p535

              Pipe p239 switched from open to closed
              Trial  2: relative flow change = 0.119302
              Trial  3: relative flow change = 0.000423
                        maximum  flow change = 0.6803 for Link p29
                        maximum  head error  = 0.0005 for Link p29

     2:50:00: Balanced after 3 trials
     2:50:00: Tank T1 is filling at 0.00 m
     2:50:00: Pipe p239 changed from open to temporarily closed
   
  WARNING: Negative pressures at 2:50:00 hrs.
   
     2:55:00: Balancing the network:

              Trial  1: relative flow change = 0.000500
                        maximum  flow change = 0.2859 for Link p110
                        maximum  head error  = 0.0000 for Link p29

              Pipe p239 switched from closed to open
              Trial  2: relative flow change = 0.695360
              Trial  3: relative flow change = 0.596250
              Trial  4: relative flow change = 0.373448
              Trial  5: relative flow change = 0.198618
              Trial  6: relative flow change = 0.086248
              Trial  7: relative flow change = 0.025902
              Trial  8: relative flow change = 0.003323
                        maximum  flow change = 10.5112 for Node n31
                        maximum  head error  = 0.0287 for Link p320

     2:55:00: Balanced after 8 trials
     2:55:00: Tank T1 is emptying at 0.02 m
     2:55:00: Pipe p239 changed from temporarily closed to open
   
     2:55:42: Balancing the network:

              Trial  1: relative flow change = 0.000094
                        maximum  flow change = 0.3148 for Link p239
                        maximum  head error  = 0.0000 for Link p320

     2:55:42: Balanced after 1 trials
   
     3:00:00: Balancing the network:

              Trial  1: relative flow change = 0.000366
                        maximum  flow change = 0.2598 for Link p110
                        maximum  head error  = 0.0000 for Link p535

              Pipe p239 switched from open to closed
              Trial  2: relative flow change = 0.119292
              Trial  3: relative flow change = 0.000414
                        maximum  flow change = 0.6633 for Link p29
                        maximum  head error  = 0.0005 for Link p29

     3:00:00: Balanced after 3 trials
     3:00:00: Tank T1 is filling at 0.00 m
     3:00:00: Pipe p239 changed from open to temporarily closed
   
  WARNING: Negative pressures at 3:00:00 hrs.
   
     3:05:00: Balancing the network:

              Trial  1: relative flow change = 0.000416
                        maximum  flow change = 0.2310 for Link p110
                        maximum  head error  = 0.0000 for Link p29

              Pipe p239 switched from closed to open
              Trial  2: relative flow change = 0.699962
              Trial  3: relative flow change = 0.602782
              Trial  4: relative flow change = 0.379286
              Trial  5: relative flow change = 0.202673
              Trial  6: relative flow change = 0.088642
              Trial  7: relative flow change = 0.027112
              Trial  8: relative flow change = 0.003619
                        maximum  flow change = 11.4542 for Node n31
                        maximum  head error  = 0.0343 for Link p320

     3:05:00: Balanced after 8 trials
     3:05:00: Tank T1 is emptying at 0.02 m
     3:05:00: Pipe p239 changed from temporarily closed to open
   
     3:05:43: Balancing the network:

              Trial  1: relative flow change = 0.000109
                        maximum  flow change = 0.3615 for Link p239
                        maximum  head error  = 0.0000 for Link p320

              Pipe p239 switched from open to closed
              Trial  2: relative flow change = 0.119216
              Trial  3: relative flow change = 0.000409
                        maximum  flow change = 0.6560 for Link p29
                        maximum  head error  = 0.0005 for Link p29

     3:05:43: Balanced after 3 trials
     3:05:43: Tank T1 is filling at -0.00 m
     3:05:43: Pipe p239 changed from open to temporarily closed
   
  WARNING: Negative pressures at 3:05:43 hrs.
   
     3:10:00: Balancing the network:

              Trial  1: relative flow change = 0.000365
                        maximum  flow change = 0.1975 for Link p110
                        maximum  head error  = 0.0000 for Link p29

              Pipe p239 switched from closed to open
              Trial  2: relative flow change = 0.701831
              Trial  3: relative flow change = 0.605475
              Trial  4: relative flow change = 0.381688
              Trial  5: relative flow change = 0.204348
              Trial  6: relative flow change = 0.089637
              Trial  7: relative flow change = 0.027622
              Trial  8: relative flow change = 0.003747
                        maximum  flow change = 11.8598 for Link p240
                        maximum  head error  = 0.0368 for Link p320

     3:10:00: Balanced after 8 trials
     3:10:00: Tank T1 is emptying at 0.01 m
     3:10:00: Pipe p239 changed from temporarily closed to open
   
     3:10:36: Balancing the network:

              Trial  1: relative flow change = 0.000112
                        maximum  flow change = 0.3692 for Node n31
                        maximum  head error  = 0.0000 for Link p320

              Pipe p239 switched from open to closed
              Trial  2: relative flow change = 0.119218
              Trial  3: relative flow change = 0.000405
                        maximum  flow change = 0.6499 for Link p29
                        maximum  head error  = 0.0005 for Link p29

     3:10:36: Balanced after 3 trials
     3:10:36: Tank T1 is filling at -0.00 m
     3:10:36: Pipe p239 changed from open to temporarily closed
   
  WARNING: Negative pressures at 3:10:36 hrs.
   
     3:15:00: Balancing the network:

              Trial  1: relative flow change = 0.000318
                        maximum  flow change = 0.1671 for Link p110
                        maximum  head error  = 0.0000 for Link p29

              Pipe p239 switched from closed to open
              Trial  2: relative flow change = 0.703402
              Trial  3: relative flow change = 0.607749
              Trial  4: relative flow change = 0.383722
              Trial  5: relative flow change = 0.205767
              Trial  6: relative flow change = 0.090482
              Trial  7: relative flow change = 0.028054
              Trial  8: relative flow change = 0.003857
                        maximum  flow change = 12.2072 for Link p240
                        maximum  head error  = 0.0391 for Link p320

     3:15:00: Balanced after 8 trials
     3:15:00: Tank T1 is emptying at 0.01 m
     3:15:00: Pipe p239 changed from temporarily closed to open
   
     3:15:37: Balancing the network:

              Trial  1: relative flow change = 0.000118
                        maximum  flow change = 0.3906 for Link p319
                        maximum  head error  = 0.0001 for Link p320

              Pipe p239 switched from open to closed
              Trial  2: relative flow change = 0.119220
              Trial  3: relative flow change = 0.000403
                        maximum  flow change = 0.6448 for Link p29
                        maximum  head error  = 0.0005 for Link p29

     3:15:37: Balanced after 3 trials
     3:15:37: Tank T1 is filling at 0.00 m
     3:15:37: Pipe p239 changed from open to temporarily closed
   
  WARNING: Negative pressures at 3:15:37 hrs.
   
     3:20:00: Balancing the network:

              Trial  1: relative flow change = 0.000275
                        maximum  flow change = 0.1390 for Link p110
                        maximum  head error  = 0.0000 for Link p29

              Pipe p239 switched from closed to open
              Trial  2: relative flow change = 0.704684
              Trial  3: relative flow change = 0.609573
              Trial  4: relative flow change = 0.385367
              Trial  5: relative flow change = 0.206922
              Trial  6: relative flow change = 0.091163
              Trial  7: relative flow change = 0.028404
              Trial  8: relative flow change = 0.003947
                        maximum  flow change = 12.4940 for Link p239
                        maximum  head error  = 0.0410 for Link p320

     3:20:00: Balanced after 8 trials
     3:20:00: Tank T1 is emptying at 0.01 m
     3:20:00: Pipe p239 changed from temporarily closed to open
   
     3:20:38: Balancing the network:

              Trial  1: relative flow change = 0.000123
                        maximum  flow change = 0.4090 for Link p319
                        maximum  head error  = 0.0001 for Link p320

              Pipe p239 switched from open to closed
              Trial  2: relative flow change = 0.119221
              Trial  3: relative flow change = 0.000400
                        maximum  flow change = 0.6408 for Link p29
                        maximum  head error  = 0.0005 for Link p29

     3:20:38: Balanced after 3 trials
     3:20:38: Tank T1 is filling at -0.00 m
     3:20:38: Pipe p239 changed from open to temporarily closed
   
  WARNING: Negative pressures at 3:20:38 hrs.
   
     3:25:00: Balancing the network:

              Trial  1: relative flow change = 0.000252
                        maximum  flow change = 0.1241 for Link p110
                        maximum  head error  = 0.0000 for Link p29

              Pipe p239 switched from closed to open
              Trial  2: relative flow change = 0.705818
              Trial  3: relative flow change = 0.611169
              Trial  4: relative flow change = 0.386816
              Trial  5: relative flow change = 0.207943
              Trial  6: relative flow change = 0.091762
              Trial  7: relative flow change = 0.028711
              Trial  8: relative flow change = 0.004027
                        maximum  flow change = 12.7505 for Node n31
                        maximum  head error  = 0.0428 for Link p320

     3:25:00: Balanced after 8 trials
     3:25:00: Tank T1 is emptying at 0.01 m
     3:25:00: Pipe p239 changed from temporarily closed to open
   
     3:25:37: Balancing the network:

              Trial  1: relative flow change = 0.000128
                        maximum  flow change = 0.4244 for Link p319
                        maximum  head error  = 0.0001 for Link p320

              Pipe p239 switched from open to closed
              Trial  2: relative flow change = 0.119223
              Trial  3: relative flow change = 0.000398
                        maximum  flow change = 0.6372 for Link p26
                        maximum  head error  = 0.0005 for Link p29

     3:25:37: Balanced after 3 trials
     3:25:37: Tank T1 is filling at -0.00 m
     3:25:37: Pipe p239 changed from open to temporarily closed
   
  WARNING: Negative pressures at 3:25:37 hrs.
   
     3:30:00: Balancing the network:

              Trial  1: relative flow change = 0.000240
                        maximum  flow change = 0.1224 for Link p26
                        maximum  head error  = 0.0000 for Link p29

              Pipe p239 switched from closed to open
              Trial  2: relative flow change = 0.706880
              Trial  3: relative flow change = 0.612670
              Trial  4: relative flow change = 0.388179
              Trial  5: relative flow change = 0.208904
              Trial  6: relative flow change = 0.092327
              Trial  7: relative flow change = 0.029002
              Trial  8: relative flow change = 0.004104
                        maximum  flow change = 12.9944 for Node n31
                        maximum  head error  = 0.0444 for Link p320

     3:30:00: Balanced after 8 trials
     3:30:00: Tank T1 is emptying at 0.01 m
     3:30:00: Pipe p239 changed from temporarily closed to open
   
     3:30:37: Balancing the network:

              Trial  1: relative flow change = 0.000132
                        maximum  flow change = 0.4399 for Link p319
                        maximum  head error  = 0.0001 for Link p320

              Pipe p239 switched from open to closed
              Trial  2: relative flow change = 0.119224
              Trial  3: relative flow change = 0.000397
                        maximum  flow change = 0.6338 for Link p26
                        maximum  head error  = 0.0005 for Link p29

     3:30:37: Balanced after 3 trials
     3:30:37: Tank T1 is filling at 0.00 m
     3:30:37: Pipe p239 changed from open to temporarily closed
   
  WARNING: Negative pressures at 3:30:37 hrs.
   
     3:35:00: Balancing the network:

              Trial  1: relative flow change = 0.000238
                        maximum  flow change = 0.1220 for Link p26
                        maximum  head error  = 0.0000 for Link p29

              Pipe p239 switched from closed to open
              Trial  2: relative flow change = 0.707977
              Trial  3: relative flow change = 0.614247
              Trial  4: relative flow change = 0.389591
              Trial  5: relative flow change = 0.209902
              Trial  6: relative flow change = 0.092913
              Trial  7: relative flow change = 0.029306
              Trial  8: relative flow change = 0.004184
                        maximum  flow change = 13.2523 for Link p240
                        maximum  head error  = 0.0463 for Link p320

     3:35:00: Balanced after 8 trials
     3:35:00: Tank T1 is emptying at 0.01 m
     3:35:00: Pipe p239 changed from temporarily closed to open
   
     3:35:37: Balancing the network:

              Trial  1: relative flow change = 0.000137
                        maximum  flow change = 0.4568 for Link p320
                        maximum  head error  = 0.0001 for Link p320

     3:35:37: Balanced after 1 trials
   
     3:40:00: Balancing the network:

              Trial  1: relative flow change = 0.000174
                        maximum  flow change = 0.1231 for Link p110
                        maximum  head error  = 0.0000 for Link p535

              Pipe p239 switched from open to closed
              Trial  2: relative flow change = 0.119263
              Trial  3: relative flow change = 0.000393
                        maximum  flow change = 0.6267 for Link p29
                        maximum  head error  = 0.0005 for Link p29

     3:40:00: Balanced after 3 trials
     3:40:00: Tank T1 is filling at 0.00 m
     3:40:00: Pipe p239 changed from open to temporarily closed
   
  WARNING: Negative pressures at 3:40:00 hrs.
   
     3:45:00: Balancing the network:

              Trial  1: relative flow change = 0.000264
                        maximum  flow change = 0.1302 for Link p110
                        maximum  head error  = 0.0000 for Link p29

              Pipe p239 switched from closed to open
              Trial  2: relative flow change = 0.710640
              Trial  3: relative flow change = 0.618090
              Trial  4: relative flow change = 0.393040
              Trial  5: relative flow change = 0.212342
              Trial  6: relative flow change = 0.094349
              Trial  7: relative flow change = 0.030058
              Trial  8: relative flow change = 0.004389
                        maximum  flow change = 13.9046 for Node n31
                        maximum  head error  = 0.0511 for Link p320

     3:45:00: Balanced after 8 trials
     3:45:00: Tank T1 is emptying at 0.02 m
     3:45:00: Pipe p239 changed from temporarily closed to open
   
     3:45:43: Balancing the network:

              Trial  1: relative flow change = 0.000152
                        maximum  flow change = 0.5060 for Link p320
                        maximum  head error  = 0.0001 for Link p320

              Pipe p239 switched from open to closed
              Trial  2: relative flow change = 0.119226
              Trial  3: relative flow change = 0.000390
                        maximum  flow change = 0.6219 for Link p26
                        maximum  head error  = 0.0005 for Link p29

     3:45:43: Balanced after 3 trials
     3:45:43: Tank T1 is filling at -0.00 m
     3:45:43: Pipe p239 changed from open to temporarily closed
   
  WARNING: Negative pressures at 3:45:43 hrs.
   
     3:50:00: Balancing the network:

              Trial  1: relative flow change = 0.000273
                        maximum  flow change = 0.1360 for Link p110
                        maximum  head error  = 0.0000 for Link p29

              Pipe p239 switched from closed to open
              Trial  2: relative flow change = 0.712185
              Trial  3: relative flow change = 0.620327
              Trial  4: relative flow change = 0.395075
              Trial  5: relative flow change = 0.213772
              Trial  6: relative flow change = 0.095193
              Trial  7: relative flow change = 0.030509
              Trial  8: relative flow change = 0.004514
                        maximum  flow change = 14.3044 for Link p240
                        maximum  head error  = 0.0543 for Link p320

     3:50:00: Balanced after 8 trials
     3:50:00: Tank T1 is emptying at 0.01 m
     3:50:00: Pipe p239 changed from temporarily closed to open
   
     3:50:36: Balancing the network:

              Trial  1: relative flow change = 0.000158
                        maximum  flow change = 0.5306 for Link p319
                        maximum  head error  = 0.0001 for Link p320

              Pipe p239 switched from open to closed
              Trial  2: relative flow change = 0.119227
              Trial  3: relative flow change = 0.000388
                        maximum  flow change = 0.6170 for Link p26
                        maximum  head error  = 0.0005 for Link p29

     3:50:36: Balanced after 3 trials
     3:50:36: Tank T1 is filling at 0.00 m
     3:50:36: Pipe p239 changed from open to temporarily closed
   
  WARNING: Negative pressures at 3:50:36 hrs.
   
     3:55:00: Balancing the network:

              Trial  1: relative flow change = 0.000270
                        maximum  flow change = 0.1330 for Link p110
                        maximum  head error  = 0.0000 for Link p29

              Pipe p239 switched from closed to open
              Trial  2: relative flow change = 0.713796
              Trial  3: relative flow change = 0.622667
              Trial  4: relative flow change = 0.397215
              Trial  5: relative flow change = 0.215273
              Trial  6: relative flow change = 0.096080
              Trial  7: relative flow change = 0.030985
              Trial  8: relative flow change = 0.004648
                        maximum  flow change = 14.7333 for Link p240
                        maximum  head error  = 0.0579 for Link p320

     3:55:00: Balanced after 8 trials
     3:55:00: Tank T1 is emptying at 0.01 m
     3:55:00: Pipe p239 changed from temporarily closed to open
   
     3:55:37: Balancing the network:

              Trial  1: relative flow change = 0.000168
                        maximum  flow change = 0.5641 for Link p320
                        maximum  head error  = 0.0001 for Link p320

     3:55:37: Balanced after 1 trials
   
     4:00:00: Balancing the network:

              Trial  1: relative flow change = 0.000180
                        maximum  flow change = 0.1236 for Link p110
                        maximum  head error  = 0.0000 for Link p658

              Pipe p239 switched from open to closed
              Trial  2: relative flow change = 0.119254
              Trial  3: relative flow change = 0.000383
                        maximum  flow change = 0.6076 for Link p26
                        maximum  head error  = 0.0004 for Link p29

     4:00:00: Balanced after 3 trials
     4:00:00: Tank T1 is filling at 0.00 m
     4:00:00: Pipe p239 changed from open to temporarily closed
   
  WARNING: Negative pressures at 4:00:00 hrs.
   
     4:05:00: Balancing the network:

              Trial  1: relative flow change = 0.000223
                        maximum  flow change = 0.1181 for Link p26
                        maximum  head error  = 0.0000 for Link p29

              Pipe p239 switched from closed to open
              Trial  2: relative flow change = 0.716637
              Trial  3: relative flow change = 0.626808
              Trial  4: relative flow change = 0.401016
              Trial  5: relative flow change = 0.217948
              Trial  6: relative flow change = 0.097671
              Trial  7: relative flow change = 0.031843
              Trial  8: relative flow change = 0.004894
                        maximum  flow change = 15.5194 for Link p240
                        maximum  head error  = 0.0648 for Link p320

     4:05:00: Balanced after 8 trials
     4:05:00: Tank T1 is emptying at 0.02 m
     4:05:00: Pipe p239 changed from temporarily closed to open
   
     4:05:43: Balancing the network:

              Trial  1: relative flow change = 0.000187
                        maximum  flow change = 0.6317 for Link p319
                        maximum  head error  = 0.0001 for Link p320

              Pipe p239 switched from open to closed
              Trial  2: relative flow change = 0.119225
              Trial  3: relative flow change = 0.000380
                        maximum  flow change = 0.6032 for Link p29
                        maximum  head error  = 0.0004 for Link p29

     4:05:43: Balanced after 3 trials
     4:05:43: Tank T1 is filling at -0.00 m
     4:05:43: Pipe p239 changed from open to temporarily closed
   
  WARNING: Negative pressures at 4:05:43 hrs.
   
     4:10:00: Balancing the network:

              Trial  1: relative flow change = 0.000181
                        maximum  flow change = 0.1158 for Link p26
                        maximum  head error  = 0.0000 for Link p29

              Pipe p239 switched from closed to open
              Trial  2: relative flow change = 0.717489
              Trial  3: relative flow change = 0.628054
              Trial  4: relative flow change = 0.402164
              Trial  5: relative flow change = 0.218759
              Trial  6: relative flow change = 0.098162
              Trial  7: relative flow change = 0.032105
              Trial  8: relative flow change = 0.004970
                        maximum  flow change = 15.7617 for Node n31
                        maximum  head error  = 0.0670 for Link p320

     4:10:00: Balanced after 8 trials
     4:10:00: Tank T1 is emptying at 0.01 m
     4:10:00: Pipe p239 changed from temporarily closed to open
   
     4:10:36: Balancing the network:

              Trial  1: relative flow change = 0.000191
                        maximum  flow change = 0.6470 for Link p320
                        maximum  head error  = 0.0001 for Link p320

              Pipe p239 switched from open to closed
              Trial  2: relative flow change = 0.119225
              Trial  3: relative flow change = 0.000379
                        maximum  flow change = 0.6006 for Link p26
                        maximum  head error  = 0.0004 for Link p29

     4:10:36: Balanced after 3 trials
     4:10:36: Tank T1 is filling at 0.00 m
     4:10:36: Pipe p239 changed from open to temporarily closed
   
  WARNING: Negative pressures at 4:10:36 hrs.
   
     4:15:00: Balancing the network:

              Trial  1: relative flow change = 0.000134
                        maximum  flow change = 0.1137 for Link p26
                        maximum  head error  = 0.0000 for Link p29

              Pipe p239 switched from closed to open
              Trial  2: relative flow change = 0.717923
              Trial  3: relative flow change = 0.628692
              Trial  4: relative flow change = 0.402752
              Trial  5: relative flow change = 0.219175
              Trial  6: relative flow change = 0.098413
              Trial  7: relative flow change = 0.032236
              Trial  8: relative flow change = 0.005007
                        maximum  flow change = 15.8812 for Link p240
                        maximum  head error  = 0.0680 for Link p320

     4:15:00: Balanced after 8 trials
     4:15:00: Tank T1 is emptying at 0.01 m
     4:15:00: Pipe p239 changed from temporarily closed to open
   
     4:15:38: Balancing the network:

              Trial  1: relative flow change = 0.000195
                        maximum  flow change = 0.6580 for Link p319
                        maximum  head error  = 0.0002 for Link p320

              Pipe p239 switched from open to closed
              Trial  2: relative flow change = 0.119226
              Trial  3: relative flow change = 0.000378
                        maximum  flow change = 0.5993 for Link p29
                        maximum  head error  = 0.0004 for Link p29

     4:15:38: Balanced after 3 trials
     4:15:38: Tank T1 is filling at -0.00 m
     4:15:38: Pipe p239 changed from open to temporarily closed
   
  WARNING: Negative pressures at 4:15:38 hrs.
   
     4:20:00: Balancing the network:

              Trial  1: relative flow change = 0.000093
                        maximum  flow change = 0.1118 for Link p29
                        maximum  head error  = 0.0000 for Link p29

              Pipe p239 switched from closed to open
              Trial  2: relative flow change = 0.717883
              Trial  3: relative flow change = 0.628635
              Trial  4: relative flow change = 0.402700
              Trial  5: relative flow change = 0.219140
              Trial  6: relative flow change = 0.098391
              Trial  7: relative flow change = 0.032218
              Trial  8: relative flow change = 0.005000
                        maximum  flow change = 15.8589 for Node n31
                        maximum  head error  = 0.0677 for Link p320

     4:20:00: Balanced after 8 trials
     4:20:00: Tank T1 is emptying at 0.01 m
     4:20:00: Pipe p239 changed from temporarily closed to open
   
     4:20:37: Balancing the network:

              Trial  1: relative flow change = 0.000193
                        maximum  flow change = 0.6543 for Link p320
                        maximum  head error  = 0.0002 for Link p320

              Pipe p239 switched from open to closed
              Trial  2: relative flow change = 0.119227
              Trial  3: relative flow change = 0.000378
                        maximum  flow change = 0.5995 for Link p29
                        maximum  head error  = 0.0004 for Link p29

     4:20:37: Balanced after 3 trials
     4:20:37: Tank T1 is filling at -0.00 m
     4:20:37: Pipe p239 changed from open to temporarily closed
   
  WARNING: Negative pressures at 4:20:37 hrs.
   
     4:25:00: Balancing the network:

              Trial  1: relative flow change = 0.000087
                        maximum  flow change = 0.1104 for Link p29
                        maximum  head error  = 0.0000 for Link p29

              Pipe p239 switched from closed to open
              Trial  2: relative flow change = 0.717447
              Trial  3: relative flow change = 0.627999
              Trial  4: relative flow change = 0.402115
              Trial  5: relative flow change = 0.218728
              Trial  6: relative flow change = 0.098142
              Trial  7: relative flow change = 0.032076
              Trial  8: relative flow change = 0.004957
                        maximum  flow change = 15.7193 for Link p240
                        maximum  head error  = 0.0662 for Link p320

     4:25:00: Balanced after 8 trials
     4:25:00: Tank T1 is emptying at 0.01 m
     4:25:00: Pipe p239 changed from temporarily closed to open
   
     4:25:37: Balancing the network:

              Trial  1: relative flow change = 0.000190
                        maximum  flow change = 0.6411 for Link p320
                        maximum  head error  = 0.0001 for Link p320

              Pipe p239 switched from open to closed
              Trial  2: relative flow change = 0.119230
              Trial  3: relative flow change = 0.000379
                        maximum  flow change = 0.6009 for Link p29
                        maximum  head error  = 0.0004 for Link p29

     4:25:37: Balanced after 3 trials
     4:25:37: Tank T1 is filling at 0.00 m
     4:25:37: Pipe p239 changed from open to temporarily closed
   
  WARNING: Negative pressures at 4:25:37 hrs.
   
     4:30:00: Balancing the network:

              Trial  1: relative flow change = 0.000110
                        maximum  flow change = 0.1099 for Link p29
                        maximum  head error  = 0.0000 for Link p29

              Pipe p239 switched from closed to open
              Trial  2: relative flow change = 0.716773
              Trial  3: relative flow change = 0.627015
              Trial  4: relative flow change = 0.401209
              Trial  5: relative flow change = 0.218091
              Trial  6: relative flow change = 0.097756
              Trial  7: relative flow change = 0.031859
              Trial  8: relative flow change = 0.004892
                        maximum  flow change = 15.5109 for Node n31
                        maximum  head error  = 0.0642 for Link p320

     4:30:00: Balanced after 8 trials
     4:30:00: Tank T1 is emptying at 0.01 m
     4:30:00: Pipe p239 changed from temporarily closed to open
   
     4:30:37: Balancing the network:

              Trial  1: relative flow change = 0.000185
                        maximum  flow change = 0.6222 for Link p319
                        maximum  head error  = 0.0001 for Link p320

              Pipe p239 switched from open to closed
              Trial  2: relative flow change = 0.119233
              Trial  3: relative flow change = 0.000380
                        maximum  flow change = 0.6031 for Link p26
                        maximum  head error  = 0.0004 for Link p29

     4:30:37: Balanced after 3 trials
     4:30:37: Tank T1 is filling at 0.00 m
     4:30:37: Pipe p239 changed from open to temporarily closed
   
  WARNING: Negative pressures at 4:30:37 hrs.
   
     4:35:00: Balancing the network:

              Trial  1: relative flow change = 0.000136
                        maximum  flow change = 0.1095 for Link p29
                        maximum  head error  = 0.0000 for Link p29

              Pipe p239 switched from closed to open
              Trial  2: relative flow change = 0.715898
              Trial  3: relative flow change = 0.625739
              Trial  4: relative flow change = 0.400036
              Trial  5: relative flow change = 0.217266
              Trial  6: relative flow change = 0.097259
              Trial  7: relative flow change = 0.031584
              Trial  8: relative flow change = 0.004811
                        maximum  flow change = 15.2507 for Node n31
                        maximum  head error  = 0.0617 for Link p320

     4:35:00: Balanced after 8 trials
     4:35:00: Tank T1 is emptying at 0.01 m
     4:35:00: Pipe p239 changed from temporarily closed to open
   
     4:35:38: Balancing the network:

              Trial  1: relative flow change = 0.000179
                        maximum  flow change = 0.6002 for Link p320
                        maximum  head error  = 0.0001 for Link p320

              Pipe p239 switched from open to closed
              Trial  2: relative flow change = 0.119235
              Trial  3: relative flow change = 0.000382
                        maximum  flow change = 0.6059 for Link p26
                        maximum  head error  = 0.0004 for Link p29

     4:35:38: Balanced after 3 trials
     4:35:38: Tank T1 is filling at -0.00 m
     4:35:38: Pipe p239 changed from open to temporarily closed
   
  WARNING: Negative pressures at 4:35:38 hrs.
   
     4:40:00: Balancing the network:

              Trial  1: relative flow change = 0.000158
                        maximum  flow change = 0.1095 for Link p29
                        maximum  head error  = 0.0000 for Link p29

              Pipe p239 switched from closed to open
              Trial  2: relative flow change = 0.714896
              Trial  3: relative flow change = 0.624283
              Trial  4: relative flow change = 0.398699
              Trial  5: relative flow change = 0.216326
              Trial  6: relative flow change = 0.096704
              Trial  7: relative flow change = 0.031276
              Trial  8: relative flow change = 0.004721
                        maximum  flow change = 14.9632 for Node n31
                        maximum  head error  = 0.0591 for Link p320

     4:40:00: Balanced after 8 trials
     4:40:00: Tank T1 is emptying at 0.01 m
     4:40:00: Pipe p239 changed from temporarily closed to open
   
     4:40:37: Balancing the network:

              Trial  1: relative flow change = 0.000172
                        maximum  flow change = 0.5756 for Link p319
                        maximum  head error  = 0.0001 for Link p320

              Pipe p239 switched from open to closed
              Trial  2: relative flow change = 0.119237
              Trial  3: relative flow change = 0.000383
                        maximum  flow change = 0.6090 for Link p26
                        maximum  head error  = 0.0004 for Link p29

     4:40:37: Balanced after 3 trials
     4:40:37: Tank T1 is filling at -0.00 m
     4:40:37: Pipe p239 changed from open to temporarily closed
   
  WARNING: Negative pressures at 4:40:37 hrs.
   
     4:45:00: Balancing the network:

              Trial  1: relative flow change = 0.000190
                        maximum  flow change = 0.1093 for Link p29
                        maximum  head error  = 0.0000 for Link p29

              Pipe p239 switched from closed to open
              Trial  2: relative flow change = 0.713740
              Trial  3: relative flow change = 0.622598
              Trial  4: relative flow change = 0.397155
              Trial  5: relative flow change = 0.215240
              Trial  6: relative flow change = 0.096062
              Trial  7: relative flow change = 0.030927
              Trial  8: relative flow change = 0.004620
                        maximum  flow change = 14.6423 for Node n31
                        maximum  head error  = 0.0563 for Link p320

     4:45:00: Balanced after 8 trials
     4:45:00: Tank T1 is emptying at 0.01 m
     4:45:00: Pipe p239 changed from temporarily closed to open
   
     4:45:37: Balancing the network:

              Trial  1: relative flow change = 0.000164
                        maximum  flow change = 0.5501 for Link p319
                        maximum  head error  = 0.0001 for Link p320

              Pipe p239 switched from open to closed
              Trial  2: relative flow change = 0.119239
              Trial  3: relative flow change = 0.000385
                        maximum  flow change = 0.6127 for Link p29
                        maximum  head error  = 0.0004 for Link p29

     4:45:37: Balanced after 3 trials
     4:45:37: Tank T1 is filling at 0.00 m
     4:45:37: Pipe p239 changed from open to temporarily closed
   
  WARNING: Negative pressures at 4:45:37 hrs.
   
     4:50:00: Balancing the network:

              Trial  1: relative flow change = 0.000239
                        maximum  flow change = 0.1126 for Link p110
                        maximum  head error  = 0.0000 for Link p29

              Pipe p239 switched from closed to open
              Trial  2: relative flow change = 0.712310
              Trial  3: relative flow change = 0.620517
              Trial  4: relative flow change = 0.395252
              Trial  5: relative flow change = 0.213905
              Trial  6: relative flow change = 0.095274
              Trial  7: relative flow change = 0.030502
              Trial  8: relative flow change = 0.004501
                        maximum  flow change = 14.2603 for Link p240
                        maximum  head error  = 0.0532 for Link p320

     4:50:00: Balanced after 8 trials
     4:50:00: Tank T1 is emptying at 0.01 m
     4:50:00: Pipe p239 changed from temporarily closed to open
   
     4:50:38: Balancing the network:

              Trial  1: relative flow change = 0.000156
                        maximum  flow change = 0.5219 for Link p320
                        maximum  head error  = 0.0001 for Link p320

              Pipe p239 switched from open to closed
              Trial  2: relative flow change = 0.119239
              Trial  3: relative flow change = 0.000388
                        maximum  flow change = 0.6172 for Link p26
                        maximum  head error  = 0.0005 for Link p29

     4:50:38: Balanced after 3 trials
     4:50:38: Tank T1 is filling at -0.00 m
     4:50:38: Pipe p239 changed from open to temporarily closed
   
  WARNING: Negative pressures at 4:50:38 hrs.
   
     4:55:00: Balancing the network:

              Trial  1: relative flow change = 0.000306
                        maximum  flow change = 0.1568 for Link p110
                        maximum  head error  = 0.0000 for Link p29

              Pipe p239 switched from closed to open
              Trial  2: relative flow change = 0.710457
              Trial  3: relative flow change = 0.617828
              Trial  4: relative flow change = 0.392816
              Trial  5: relative flow change = 0.212187
              Trial  6: relative flow change = 0.094261
              Trial  7: relative flow change = 0.029962
              Trial  8: relative flow change = 0.004352
                        maximum  flow change = 13.7836 for Link p240
                        maximum  head error  = 0.0494 for Link p320

     4:55:00: Balanced after 8 trials
     4:55:00: Tank T1 is emptying at 0.01 m
     4:55:00: Pipe p239 changed from temporarily closed to open
   
     4:55:37: Balancing the network:

              Trial  1: relative flow change = 0.000146
                        maximum  flow change = 0.4868 for Link p320
                        maximum  head error  = 0.0001 for Link p320

              Pipe p239 switched from open to closed
              Trial  2: relative flow change = 0.119240
              Trial  3: relative flow change = 0.000391
                        maximum  flow change = 0.6232 for Link p26
                        maximum  head error  = 0.0005 for Link p29

     4:55:37: Balanced after 3 trials
     4:55:37: Tank T1 is filling at -0.00 m
     4:55:37: Pipe p239 changed from open to temporarily closed
   
  WARNING: Negative pressures at 4:55:37 hrs.
   
     5:00:00: Balancing the network:

              Trial  1: relative flow change = 0.000389
                        maximum  flow change = 0.2094 for Link p110
                        maximum  head error  = 0.0000 for Link p29

              Pipe p239 switched from closed to open
              Trial  2: relative flow change = 0.708019
              Trial  3: relative flow change = 0.614306
              Trial  4: relative flow change = 0.389655
              Trial  5: relative flow change = 0.209951
              Trial  6: relative flow change = 0.092944
              Trial  7: relative flow change = 0.029266
              Trial  8: relative flow change = 0.004162
                        maximum  flow change = 13.1777 for Link p239
                        maximum  head error  = 0.0449 for Link p320

     5:00:00: Balanced after 8 trials
     5:00:00: Tank T1 is emptying at 0.01 m
     5:00:00: Pipe p239 changed from temporarily closed to open
   
     5:00:37: Balancing the network:

              Trial  1: relative flow change = 0.000134
                        maximum  flow change = 0.4450 for Link p320
                        maximum  head error  = 0.0001 for Link p320

              Pipe p239 switched from open to closed
              Trial  2: relative flow change = 0.119240
              Trial  3: relative flow change = 0.000395
                        maximum  flow change = 0.6310 for Link p26
                        maximum  head error  = 0.0005 for Link p29

     5:00:37: Balanced after 3 trials
     5:00:37: Tank T1 is filling at 0.00 m
     5:00:37: Pipe p239 changed from open to temporarily closed
   
  WARNING: Negative pressures at 5:00:37 hrs.
   
     5:05:00: Balancing the network:

              Trial  1: relative flow change = 0.000492
                        maximum  flow change = 0.2738 for Link p110
                        maximum  head error  = 0.0000 for Link p29

              Pipe p239 switched from closed to open
              Trial  2: relative flow change = 0.704835
              Trial  3: relative flow change = 0.609797
              Trial  4: relative flow change = 0.385571
              Trial  5: relative flow change = 0.207071
              Trial  6: relative flow change = 0.091253
              Trial  7: relative flow change = 0.028376
              Trial  8: relative flow change = 0.003924
                        maximum  flow change = 12.4191 for Node n31
                        maximum  head error  = 0.0396 for Link p320

     5:05:00: Balanced after 8 trials
     5:05:00: Tank T1 is emptying at 0.01 m
     5:05:00: Pipe p239 changed from temporarily closed to open
   
     5:05:37: Balancing the network:

              Trial  1: relative flow change = 0.000120
                        maximum  flow change = 0.3966 for Node n31
                        maximum  head error  = 0.0001 for Link p320

              Pipe p239 switched from open to closed
              Trial  2: relative flow change = 0.119242
              Trial  3: relative flow change = 0.000401
                        maximum  flow change = 0.6413 for Link p26
                        maximum  head error  = 0.0005 for Link p29

     5:05:37: Balanced after 3 trials
     5:05:37: Tank T1 is filling at 0.00 m
     5:05:37: Pipe p239 changed from open to temporarily closed
   
  WARNING: Negative pressures at 5:05:37 hrs.
   
     5:10:00: Balancing the network:

              Trial  1: relative flow change = 0.000602
                        maximum  flow change = 0.3406 for Link p110
                        maximum  head error  = 0.0000 for Link p29

              Pipe p239 switched from closed to open
              Trial  2: relative flow change = 0.700830
              Trial  3: relative flow change = 0.604032
              Trial  4: relative flow change = 0.380407
              Trial  5: relative flow change = 0.203463
              Trial  6: relative flow change = 0.089110
              Trial  7: relative flow change = 0.027256
              Trial  8: relative flow change = 0.003638
                        maximum  flow change = 11.5068 for Node n31
                        maximum  head error  = 0.0335 for Link p320

     5:10:00: Balanced after 8 trials
     5:10:00: Tank T1 is emptying at 0.01 m
     5:10:00: Pipe p239 changed from temporarily closed to open
   
     5:10:38: Balancing the network:

              Trial  1: relative flow change = 0.000106
                        maximum  flow change = 0.3508 for Link p240
                        maximum  head error  = 0.0000 for Link p320

              Pipe p239 switched from open to closed
              Trial  2: relative flow change = 0.119243
              Trial  3: relative flow change = 0.000408
                        maximum  flow change = 0.6547 for Link p29
                        maximum  head error  = 0.0005 for Link p29

     5:10:38: Balanced after 3 trials
     5:10:38: Tank T1 is filling at -0.00 m
     5:10:38: Pipe p239 changed from open to temporarily closed
   
  WARNING: Negative pressures at 5:10:38 hrs.
   
     5:15:00: Balancing the network:

              Trial  1: relative flow change = 0.000723
                        maximum  flow change = 0.4131 for Link p110
                        maximum  head error  = 0.0000 for Link p251

              Pipe p239 switched from closed to open
              Trial  2: relative flow change = 0.695914
              Trial  3: relative flow change = 0.597040
              Trial  4: relative flow change = 0.374160
              Trial  5: relative flow change = 0.199122
              Trial  6: relative flow change = 0.086547
              Trial  7: relative flow change = 0.025935
              Trial  8: relative flow change = 0.003309
                        maximum  flow change = 10.4601 for Link p240
                        maximum  head error  = 0.0272 for Link p320

     5:15:00: Balanced after 8 trials
     5:15:00: Tank T1 is emptying at 0.01 m
     5:15:00: Pipe p239 changed from temporarily closed to open
   
     5:15:37: Balancing the network:

              Trial  1: relative flow change = 0.000090
                        maximum  flow change = 0.2989 for Link p239
                        maximum  head error  = 0.0000 for Link p320

              Pipe p239 switched from open to closed
              Trial  2: relative flow change = 0.119248
              Trial  3: relative flow change = 0.000418
                        maximum  flow change = 0.6715 for Link p29
                        maximum  head error  = 0.0005 for Link p29

     5:15:37: Balanced after 3 trials
     5:15:37: Tank T1 is filling at -0.00 m
     5:15:37: Pipe p239 changed from open to temporarily closed
   
  WARNING: Negative pressures at 5:15:37 hrs.
   
     5:20:00: Balancing the network:

              Trial  1: relative flow change = 0.000858
                        maximum  flow change = 0.4922 for Link p110
                        maximum  head error  = 0.0000 for Link p251

              Pipe p239 switched from closed to open
              Trial  2: relative flow change = 0.690010
              Trial  3: relative flow change = 0.588746
              Trial  4: relative flow change = 0.366802
              Trial  5: relative flow change = 0.194039
              Trial  6: relative flow change = 0.083569
              Trial  7: relative flow change = 0.024424
              Trial  8: relative flow change = 0.002948
                        maximum  flow change = 9.3054 for Link p240
                        maximum  head error  = 0.0210 for Link p320

     5:20:00: Balanced after 8 trials
     5:20:00: Tank T1 is emptying at 0.01 m
     5:20:00: Pipe p239 changed from temporarily closed to open
   
     5:20:37: Balancing the network:

              Trial  1: relative flow change = 0.000075
                        maximum  flow change = 0.2493 for Node n31
                        maximum  head error  = 0.0000 for Link p320

              Pipe p239 switched from open to closed
              Trial  2: relative flow change = 0.119254
              Trial  3: relative flow change = 0.000429
                        maximum  flow change = 0.6924 for Link p29
                        maximum  head error  = 0.0006 for Link p29

     5:20:37: Balanced after 3 trials
     5:20:37: Tank T1 is filling at 0.00 m
     5:20:37: Pipe p239 changed from open to temporarily closed
   
  WARNING: Negative pressures at 5:20:37 hrs.
   
     5:25:00: Balancing the network:

              Trial  1: relative flow change = 0.001010
                        maximum  flow change = 0.5800 for Link p110
                        maximum  head error  = 0.0000 for Link p251

              Pipe p239 switched from closed to open
              Trial  2: relative flow change = 0.683032
              Trial  3: relative flow change = 0.579045
              Trial  4: relative flow change = 0.358314
              Trial  5: relative flow change = 0.188207
              Trial  6: relative flow change = 0.080171
              Trial  7: relative flow change = 0.022722
              Trial  8: relative flow change = 0.002566
                        maximum  flow change = 8.0770 for Link p240
                        maximum  head error  = 0.0153 for Link p320

     5:25:00: Balanced after 8 trials
     5:25:00: Tank T1 is emptying at 0.01 m
     5:25:00: Pipe p239 changed from temporarily closed to open
   
     5:25:37: Balancing the network:

              Trial  1: relative flow change = 0.000061
                        maximum  flow change = 0.2031 for Node n31
                        maximum  head error  = 0.0000 for Link p320

              Pipe p239 switched from open to closed
              Trial  2: relative flow change = 0.119264
              Trial  3: relative flow change = 0.000444
                        maximum  flow change = 0.7181 for Link p29
                        maximum  head error  = 0.0006 for Link p29

     5:25:37: Balanced after 3 trials
     5:25:37: Tank T1 is filling at 0.00 m
     5:25:37: Pipe p239 changed from open to temporarily closed
   
  WARNING: Negative pressures at 5:25:37 hrs.
   
     5:30:00: Balancing the network:

              Trial  1: relative flow change = 0.001199
                        maximum  flow change = 0.6903 for Link p110
                        maximum  head error  = 0.0000 for Link p251

              Pipe p239 switched from closed to open
              Trial  2: relative flow change = 0.674861
              Trial  3: relative flow change = 0.567820
              Trial  4: relative flow change = 0.348627
              Trial  5: relative flow change = 0.181602
              Trial  6: relative flow change = 0.076347
              Trial  7: relative flow change = 0.020846
              Trial  8: relative flow change = 0.002176
                        maximum  flow change = 6.8145 for Link p239
                        maximum  head error  = 0.0104 for Link p320

     5:30:00: Balanced after 8 trials
     5:30:00: Tank T1 is emptying at 0.01 m
     5:30:00: Pipe p239 changed from temporarily closed to open
   
     5:30:38: Balancing the network:

              Trial  1: relative flow change = 0.000051
                        maximum  flow change = 0.1647 for Node n31
                        maximum  head error  = 0.0000 for Link p320

              Pipe p239 switched from open to closed
              Trial  2: relative flow change = 0.119276
              Trial  3: relative flow change = 0.000462
                        maximum  flow change = 0.7496 for Link p26
                        maximum  head error  = 0.0007 for Link p29

     5:30:38: Balanced after 3 trials
     5:30:38: Tank T1 is filling at -0.00 m
     5:30:38: Pipe p239 changed from open to temporarily closed
   
  WARNING: Negative pressures at 5:30:38 hrs.
   
     5:35:00: Balancing the network:

              Trial  1: relative flow change = 0.001438
                        maximum  flow change = 0.8295 for Link p110
                        maximum  head error  = 0.0000 for Link p251

              Pipe p239 switched from closed to open
              Trial  2: relative flow change = 0.665288
              Trial  3: relative flow change = 0.554850
              Trial  4: relative flow change = 0.337590
              Trial  5: relative flow change = 0.174153
              Trial  6: relative flow change = 0.072125
              Trial  7: relative flow change = 0.018833
              Trial  8: relative flow change = 0.001784
                        maximum  flow change = 5.5526 for Node n31
                        maximum  head error  = 0.0065 for Link p320

     5:35:00: Balanced after 8 trials
     5:35:00: Tank T1 is emptying at 0.01 m
     5:35:00: Pipe p239 changed from temporarily closed to open
   
     5:35:37: Balancing the network:

              Trial  1: relative flow change = 0.000043
                        maximum  flow change = 0.1300 for Link p240
                        maximum  head error  = 0.0000 for Link p320

              Pipe p239 switched from open to closed
              Trial  2: relative flow change = 0.119293
              Trial  3: relative flow change = 0.000485
                        maximum  flow change = 0.7884 for Link p26
                        maximum  head error  = 0.0007 for Link p29

     5:35:37: Balanced after 3 trials
     5:35:37: Tank T1 is filling at -0.00 m
     5:35:37: Pipe p239 changed from open to temporarily closed
   
  WARNING: Negative pressures at 5:35:37 hrs.
   
     5:40:00: Balancing the network:

              Trial  1: relative flow change = 0.001729
                        maximum  flow change = 1.0011 for Link p110
                        maximum  head error  = 0.0001 for Link p251

              Pipe p239 switched from closed to open
              Trial  2: relative flow change = 0.654259
              Trial  3: relative flow change = 0.540139
              Trial  4: relative flow change = 0.325270
              Trial  5: relative flow change = 0.165931
              Trial  6: relative flow change = 0.067537
              Trial  7: relative flow change = 0.016791
              Trial  8: relative flow change = 0.001408
                        maximum  flow change = 4.3536 for Node n31
                        maximum  head error  = 0.0037 for Link p320

     5:40:00: Balanced after 8 trials
     5:40:00: Tank T1 is emptying at 0.01 m
     5:40:00: Pipe p239 changed from temporarily closed to open
   
     5:40:37: Balancing the network:

              Trial  1: relative flow change = 0.000037
                        maximum  flow change = 0.1054 for Link p239
                        maximum  head error  = 0.0000 for Link p320

              Pipe p239 switched from open to closed
              Trial  2: relative flow change = 0.119313
              Trial  3: relative flow change = 0.000513
                        maximum  flow change = 0.8357 for Link p26
                        maximum  head error  = 0.0008 for Link p29

     5:40:37: Balanced after 3 trials
     5:40:37: Tank T1 is filling at -0.00 m
     5:40:37: Pipe p239 changed from open to temporarily closed
   
  WARNING: Negative pressures at 5:40:37 hrs.
   
     5:45:00: Balancing the network:

              Trial  1: relative flow change = 0.002067
                        maximum  flow change = 1.2014 for Link p110
                        maximum  head error  = 0.0001 for Link p251

              Pipe p239 switched from closed to open
              Trial  2: relative flow change = 0.641810
              Trial  3: relative flow change = 0.523846
              Trial  4: relative flow change = 0.311879
              Trial  5: relative flow change = 0.157138
              Trial  6: relative flow change = 0.062730
              Trial  7: relative flow change = 0.014710
              Trial  8: relative flow change = 0.001073
                        maximum  flow change = 3.2745 for Link p240
                        maximum  head error  = 0.0019 for Link p320

     5:45:00: Balanced after 8 trials
     5:45:00: Tank T1 is emptying at 0.01 m
     5:45:00: Pipe p239 changed from temporarily closed to open
   
     5:45:37: Balancing the network:

              Trial  1: relative flow change = 0.000033
                        maximum  flow change = 0.0889 for Node n31
                        maximum  head error  = 0.0000 for Link p13

              Pipe p239 switched from open to closed
              Trial  2: relative flow change = 0.119339
              Trial  3: relative flow change = 0.000543
                        maximum  flow change = 0.8923 for Link p29
                        maximum  head error  = 0.0009 for Link p29

     5:45:37: Balanced after 3 trials
     5:45:37: Tank T1 is filling at -0.00 m
     5:45:37: Pipe p239 changed from open to temporarily closed
   
  WARNING: Negative pressures at 5:45:37 hrs.
   
     5:50:00: Balancing the network:

              Trial  1: relative flow change = 0.002431
                        maximum  flow change = 1.4195 for Link p110
                        maximum  head error  = 0.0001 for Link p251

              Pipe p239 switched from closed to open
              Trial  2: relative flow change = 0.628286
              Trial  3: relative flow change = 0.506491
              Trial  4: relative flow change = 0.297858
              Trial  5: relative flow change = 0.148020
              Trial  6: relative flow change = 0.057747
              Trial  7: relative flow change = 0.012665
              Trial  8: relative flow change = 0.000792
                        maximum  flow change = 2.3677 for Node n31
                        maximum  head error  = 0.0009 for Link p320

     5:50:00: Balanced after 8 trials
     5:50:00: Tank T1 is emptying at 0.01 m
     5:50:00: Pipe p239 changed from temporarily closed to open
   
     5:50:37: Balancing the network:

              Trial  1: relative flow change = 0.000030
                        maximum  flow change = 0.0789 for Link p240
                        maximum  head error  = 0.0000 for Link PUMP_1

              Pipe p239 switched from open to closed
              Trial  2: relative flow change = 0.119370
              Trial  3: relative flow change = 0.000577
                        maximum  flow change = 0.9588 for Link p26
                        maximum  head error  = 0.0010 for Link p29

     5:50:37: Balanced after 3 trials
     5:50:37: Tank T1 is filling at -0.00 m
     5:50:37: Pipe p239 changed from open to temporarily closed
   
  WARNING: Negative pressures at 5:50:37 hrs.
   
     5:55:00: Balancing the network:

              Trial  1: relative flow change = 0.002786
                        maximum  flow change = 1.6345 for Link p110
                        maximum  head error  = 0.0002 for Link p251

              Pipe p239 switched from closed to open
              Trial  2: relative flow change = 0.613928
              Trial  3: relative flow change = 0.488432
              Trial  4: relative flow change = 0.283559
              Trial  5: relative flow change = 0.138962
              Trial  6: relative flow change = 0.052770
              Trial  7: relative flow change = 0.010753
              Trial  8: relative flow change = 0.000572
                        maximum  flow change = 1.6584 for Node n31
                        maximum  head error  = 0.0004 for Link p320

     5:55:00: Balanced after 8 trials
     5:55:00: Tank T1 is emptying at 0.01 m
     5:55:00: Pipe p239 changed from temporarily closed to open
   
     5:55:36: Balancing the network:

              Trial  1: relative flow change = 0.000028
                        maximum  flow change = 0.0717 for Link p240
                        maximum  head error  = 0.0000 for Link PUMP_1

     5:55:36: Balanced after 1 trials
   
     6:00:00: Balancing the network:

              Trial  1: relative flow change = 0.002746
                        maximum  flow change = 1.8193 for Link p110
                        maximum  head error  = 0.0001 for Link p658

              Pipe p239 switched from open to closed
              Trial  2: relative flow change = 0.119727
              Trial  3: relative flow change = 0.000663
                        maximum  flow change = 1.1194 for Link p29
                        maximum  head error  = 0.0014 for Link p29

     6:00:00: Balanced after 3 trials
     6:00:00: Tank T1 is filling at 0.00 m
     6:00:00: Pipe p239 changed from open to temporarily closed
   
  WARNING: Negative pressures at 6:00:00 hrs.
   
     6:05:00: Balancing the network:

              Trial  1: relative flow change = 0.003301
                        maximum  flow change = 1.9509 for Link p110
                        maximum  head error  = 0.0002 for Link p251

              Pipe p239 switched from closed to open
              Trial  2: relative flow change = 0.585149
              Trial  3: relative flow change = 0.453292
              Trial  4: relative flow change = 0.256620
              Trial  5: relative flow change = 0.122473
              Trial  6: relative flow change = 0.043634
              Trial  7: relative flow change = 0.007673
                        maximum  flow change = 22.3270 for Link p239
                        maximum  head error  = 0.0530 for Link p251

     6:05:00: Balanced after 7 trials
     6:05:00: Tank T1 is emptying at 0.02 m
     6:05:00: Pipe p239 changed from temporarily closed to open
   
     6:05:42: Balancing the network:

              Trial  1: relative flow change = 0.000331
                        maximum  flow change = 0.8649 for Link p240
                        maximum  head error  = 0.0001 for Link p32

              Pipe p239 switched from open to closed
              Trial  2: relative flow change = 0.119474
              Trial  3: relative flow change = 0.000709
                        maximum  flow change = 1.2077 for Link p29
                        maximum  head error  = 0.0016 for Link p29

     6:05:42: Balanced after 3 trials
     6:05:42: Tank T1 is filling at -0.00 m
     6:05:42: Pipe p239 changed from open to temporarily closed
   
  WARNING: Negative pressures at 6:05:42 hrs.
   
     6:10:00: Balancing the network:

              Trial  1: relative flow change = 0.003388
                        maximum  flow change = 2.0076 for Link p110
                        maximum  head error  = 0.0002 for Link p251

              Pipe p239 switched from closed to open
              Trial  2: relative flow change = 0.571427
              Trial  3: relative flow change = 0.437112
              Trial  4: relative flow change = 0.244589
              Trial  5: relative flow change = 0.115099
              Trial  6: relative flow change = 0.039655
              Trial  7: relative flow change = 0.006510
                        maximum  flow change = 18.4594 for Node n31
                        maximum  head error  = 0.0369 for Link p251

     6:10:00: Balanced after 7 trials
     6:10:00: Tank T1 is emptying at 0.01 m
     6:10:00: Pipe p239 changed from temporarily closed to open
   
     6:10:35: Balancing the network:

              Trial  1: relative flow change = 0.000251
                        maximum  flow change = 0.6159 for Node n31
                        maximum  head error  = 0.0001 for Link p32

              Pipe p239 switched from open to closed
              Trial  2: relative flow change = 0.119509
              Trial  3: relative flow change = 0.000756
                        maximum  flow change = 1.2977 for Link p29
                        maximum  head error  = 0.0018 for Link p29

     6:10:35: Balanced after 3 trials
     6:10:35: Tank T1 is filling at 0.00 m
     6:10:35: Pipe p239 changed from open to temporarily closed
   
  WARNING: Negative pressures at 6:10:35 hrs.
   
     6:15:00: Balancing the network:

              Trial  1: relative flow change = 0.003343
                        maximum  flow change = 1.9868 for Link p110
                        maximum  head error  = 0.0002 for Link p251

              Pipe p239 switched from closed to open
              Trial  2: relative flow change = 0.558949
              Trial  3: relative flow change = 0.422622
              Trial  4: relative flow change = 0.233943
              Trial  5: relative flow change = 0.108594
              Trial  6: relative flow change = 0.036263
              Trial  7: relative flow change = 0.005614
                        maximum  flow change = 15.4483 for Link p239
                        maximum  head error  = 0.0270 for Link p32

     6:15:00: Balanced after 7 trials
     6:15:00: Tank T1 is emptying at 0.01 m
     6:15:00: Pipe p239 changed from temporarily closed to open
   
     6:15:37: Balancing the network:

              Trial  1: relative flow change = 0.000201
                        maximum  flow change = 0.4674 for Node n31
                        maximum  head error  = 0.0000 for Link p32

              Pipe p239 switched from open to closed
              Trial  2: relative flow change = 0.119541
              Trial  3: relative flow change = 0.000803
                        maximum  flow change = 1.3858 for Link p26
                        maximum  head error  = 0.0020 for Link p29

     6:15:37: Balanced after 3 trials
     6:15:37: Tank T1 is filling at -0.00 m
[...]
    23:00:00: Pipe p239 changed from temporarily closed to open
   
  WARNING: Negative pressures at 23:00:00 hrs.
   
    23:00:36: Balancing the network:

              Trial  1: relative flow change = 0.000080
                        maximum  flow change = 0.1873 for Link p239
                        maximum  head error  = 0.0000 for Link p32

              Pipe p239 switched from open to closed
              Trial  2: relative flow change = 0.119185
              Trial  3: relative flow change = 0.000939
                        maximum  flow change = 1.6603 for Link p29
                        maximum  head error  = 0.0028 for Link p29

    23:00:36: Balanced after 3 trials
    23:00:36: Tank T1 is filling at -0.00 m
    23:00:36: Pipe p239 changed from open to temporarily closed
   
  WARNING: Negative pressures at 23:00:36 hrs.
   
    23:05:00: Balancing the network:

              Trial  1: relative flow change = 0.000962
                        maximum  flow change = 0.5288 for Link p110
                        maximum  head error  = 0.0001 for Link p29

              Pipe p239 switched from closed to open
              Trial  2: relative flow change = 0.516803
              Trial  3: relative flow change = 0.375915
              Trial  4: relative flow change = 0.200792
              Trial  5: relative flow change = 0.088729
              Trial  6: relative flow change = 0.026419
              Trial  7: relative flow change = 0.003141
                        maximum  flow change = 8.6867 for Link p240
                        maximum  head error  = 0.0085 for Link p32

    23:05:00: Balanced after 7 trials
    23:05:00: Tank T1 is emptying at 0.01 m
    23:05:00: Pipe p239 changed from temporarily closed to open
   
  WARNING: Negative pressures at 23:05:00 hrs.
   
    23:05:36: Balancing the network:

              Trial  1: relative flow change = 0.000083
                        maximum  flow change = 0.1978 for Node n31
                        maximum  head error  = 0.0000 for Link p32

              Pipe p239 switched from open to closed
              Trial  2: relative flow change = 0.119173
              Trial  3: relative flow change = 0.000926
                        maximum  flow change = 1.6352 for Link p26
                        maximum  head error  = 0.0028 for Link p29

    23:05:36: Balanced after 3 trials
    23:05:36: Tank T1 is filling at -0.00 m
    23:05:36: Pipe p239 changed from open to temporarily closed
   
  WARNING: Negative pressures at 23:05:36 hrs.
   
    23:10:00: Balancing the network:

              Trial  1: relative flow change = 0.001019
                        maximum  flow change = 0.5663 for Link p110
                        maximum  head error  = 0.0001 for Link p29

              Pipe p239 switched from closed to open
              Trial  2: relative flow change = 0.519849
              Trial  3: relative flow change = 0.379239
              Trial  4: relative flow change = 0.203105
              Trial  5: relative flow change = 0.090112
              Trial  6: relative flow change = 0.027076
              Trial  7: relative flow change = 0.003270
                        maximum  flow change = 9.1300 for Node n31
                        maximum  head error  = 0.0092 for Link p251

    23:10:00: Balanced after 7 trials
    23:10:00: Tank T1 is emptying at 0.01 m
    23:10:00: Pipe p239 changed from temporarily closed to open
   
  WARNING: Negative pressures at 23:10:00 hrs.
   
    23:10:36: Balancing the network:

              Trial  1: relative flow change = 0.000088
                        maximum  flow change = 0.2101 for Node n31
                        maximum  head error  = 0.0000 for Link p32

              Pipe p239 switched from open to closed
              Trial  2: relative flow change = 0.119161
              Trial  3: relative flow change = 0.000912
                        maximum  flow change = 1.6088 for Link p29
                        maximum  head error  = 0.0027 for Link p29

    23:10:36: Balanced after 3 trials
    23:10:36: Tank T1 is filling at -0.00 m
    23:10:36: Pipe p239 changed from open to temporarily closed
   
  WARNING: Negative pressures at 23:10:36 hrs.
   
    23:15:00: Balancing the network:

              Trial  1: relative flow change = 0.001038
                        maximum  flow change = 0.5812 for Link p110
                        maximum  head error  = 0.0001 for Link p29

              Pipe p239 switched from closed to open
              Trial  2: relative flow change = 0.522983
              Trial  3: relative flow change = 0.382676
              Trial  4: relative flow change = 0.205518
              Trial  5: relative flow change = 0.091558
              Trial  6: relative flow change = 0.027764
              Trial  7: relative flow change = 0.003414
                        maximum  flow change = 9.6059 for Node n31
                        maximum  head error  = 0.0101 for Link p251

    23:15:00: Balanced after 7 trials
    23:15:00: Tank T1 is emptying at 0.01 m
    23:15:00: Pipe p239 changed from temporarily closed to open
   
  WARNING: Negative pressures at 23:15:00 hrs.
   
    23:15:36: Balancing the network:

              Trial  1: relative flow change = 0.000092
                        maximum  flow change = 0.2241 for Link p239
                        maximum  head error  = 0.0000 for Link p32

              Pipe p239 switched from open to closed
              Trial  2: relative flow change = 0.119150
              Trial  3: relative flow change = 0.000899
                        maximum  flow change = 1.5823 for Link p26
                        maximum  head error  = 0.0026 for Link p29

    23:15:36: Balanced after 3 trials
    23:15:36: Tank T1 is filling at -0.00 m
    23:15:36: Pipe p239 changed from open to temporarily closed
   
  WARNING: Negative pressures at 23:15:36 hrs.
   
    23:20:00: Balancing the network:

              Trial  1: relative flow change = 0.001020
                        maximum  flow change = 0.5736 for Link p110
                        maximum  head error  = 0.0001 for Link p29

              Pipe p239 switched from closed to open
              Trial  2: relative flow change = 0.526075
              Trial  3: relative flow change = 0.386061
              Trial  4: relative flow change = 0.207884
              Trial  5: relative flow change = 0.092962
              Trial  6: relative flow change = 0.028453
              Trial  7: relative flow change = 0.003562
                        maximum  flow change = 10.0959 for Node n31
                        maximum  head error  = 0.0111 for Link p251

    23:20:00: Balanced after 7 trials
    23:20:00: Tank T1 is emptying at 0.01 m
    23:20:00: Pipe p239 changed from temporarily closed to open
   
    23:20:36: Balancing the network:

              Trial  1: relative flow change = 0.000097
                        maximum  flow change = 0.2392 for Link p240
                        maximum  head error  = 0.0000 for Link p32

              Pipe p239 switched from open to closed
              Trial  2: relative flow change = 0.119140
              Trial  3: relative flow change = 0.000886
                        maximum  flow change = 1.5568 for Link p26
                        maximum  head error  = 0.0025 for Link p29

    23:20:36: Balanced after 3 trials
    23:20:36: Tank T1 is filling at -0.00 m
    23:20:36: Pipe p239 changed from open to temporarily closed
   
  WARNING: Negative pressures at 23:20:36 hrs.
   
    23:25:00: Balancing the network:

              Trial  1: relative flow change = 0.000986
                        maximum  flow change = 0.5561 for Link p110
                        maximum  head error  = 0.0001 for Link p29

              Pipe p239 switched from closed to open
              Trial  2: relative flow change = 0.529059
              Trial  3: relative flow change = 0.389342
              Trial  4: relative flow change = 0.210184
              Trial  5: relative flow change = 0.094329
              Trial  6: relative flow change = 0.029130
              Trial  7: relative flow change = 0.003711
                        maximum  flow change = 10.5868 for Link p240
                        maximum  head error  = 0.0122 for Link p251

    23:25:00: Balanced after 7 trials
    23:25:00: Tank T1 is emptying at 0.01 m
    23:25:00: Pipe p239 changed from temporarily closed to open
   
    23:25:36: Balancing the network:

              Trial  1: relative flow change = 0.000102
                        maximum  flow change = 0.2553 for Link p239
                        maximum  head error  = 0.0000 for Link p32

              Pipe p239 switched from open to closed
              Trial  2: relative flow change = 0.119132
              Trial  3: relative flow change = 0.000874
                        maximum  flow change = 1.5329 for Link p26
                        maximum  head error  = 0.0024 for Link p29

    23:25:36: Balanced after 3 trials
    23:25:36: Tank T1 is filling at -0.00 m
    23:25:36: Pipe p239 changed from open to temporarily closed
   
  WARNING: Negative pressures at 23:25:36 hrs.
   
    23:30:00: Balancing the network:

              Trial  1: relative flow change = 0.000964
                        maximum  flow change = 0.5461 for Link p110
                        maximum  head error  = 0.0001 for Link p29

              Pipe p239 switched from closed to open
              Trial  2: relative flow change = 0.531982
              Trial  3: relative flow change = 0.392568
              Trial  4: relative flow change = 0.212454
              Trial  5: relative flow change = 0.095688
              Trial  6: relative flow change = 0.029802
              Trial  7: relative flow change = 0.003863
                        maximum  flow change = 11.0850 for Link p240
                        maximum  head error  = 0.0133 for Link p251

    23:30:00: Balanced after 7 trials
    23:30:00: Tank T1 is emptying at 0.01 m
    23:30:00: Pipe p239 changed from temporarily closed to open
   
    23:30:36: Balancing the network:

              Trial  1: relative flow change = 0.000108
                        maximum  flow change = 0.2724 for Link p240
                        maximum  head error  = 0.0000 for Link p251

              Pipe p239 switched from open to closed
              Trial  2: relative flow change = 0.119126
              Trial  3: relative flow change = 0.000862
                        maximum  flow change = 1.5100 for Link p29
                        maximum  head error  = 0.0024 for Link p29

    23:30:36: Balanced after 3 trials
    23:30:36: Tank T1 is filling at -0.00 m
    23:30:36: Pipe p239 changed from open to temporarily closed
   
  WARNING: Negative pressures at 23:30:36 hrs.
   
    23:35:00: Balancing the network:

              Trial  1: relative flow change = 0.000957
                        maximum  flow change = 0.5447 for Link p110
                        maximum  head error  = 0.0001 for Link p29

              Pipe p239 switched from closed to open
              Trial  2: relative flow change = 0.534887
              Trial  3: relative flow change = 0.395784
              Trial  4: relative flow change = 0.214725
              Trial  5: relative flow change = 0.097057
              Trial  6: relative flow change = 0.030481
              Trial  7: relative flow change = 0.004019
                        maximum  flow change = 11.5968 for Node n31
                        maximum  head error  = 0.0145 for Link p251

    23:35:00: Balanced after 7 trials
    23:35:00: Tank T1 is emptying at 0.01 m
    23:35:00: Pipe p239 changed from temporarily closed to open
   
    23:35:36: Balancing the network:

              Trial  1: relative flow change = 0.000114
                        maximum  flow change = 0.2908 for Link p239
                        maximum  head error  = 0.0000 for Link p251

              Pipe p239 switched from open to closed
              Trial  2: relative flow change = 0.119121
              Trial  3: relative flow change = 0.000850
                        maximum  flow change = 1.4878 for Link p29
                        maximum  head error  = 0.0023 for Link p29

    23:35:36: Balanced after 3 trials
    23:35:36: Tank T1 is filling at 0.00 m
    23:35:36: Pipe p239 changed from open to temporarily closed
   
  WARNING: Negative pressures at 23:35:36 hrs.
   
    23:40:00: Balancing the network:

              Trial  1: relative flow change = 0.000985
                        maximum  flow change = 0.5643 for Link p110
                        maximum  head error  = 0.0001 for Link p29

              Pipe p239 switched from closed to open
              Trial  2: relative flow change = 0.537903
              Trial  3: relative flow change = 0.399136
              Trial  4: relative flow change = 0.217100
              Trial  5: relative flow change = 0.098491
              Trial  6: relative flow change = 0.031196
              Trial  7: relative flow change = 0.004187
                        maximum  flow change = 12.1472 for Node n31
                        maximum  head error  = 0.0158 for Link p251

    23:40:00: Balanced after 7 trials
    23:40:00: Tank T1 is emptying at 0.01 m
    23:40:00: Pipe p239 changed from temporarily closed to open
   
    23:40:36: Balancing the network:

              Trial  1: relative flow change = 0.000121
                        maximum  flow change = 0.3115 for Link p240
                        maximum  head error  = 0.0000 for Link p251

              Pipe p239 switched from open to closed
              Trial  2: relative flow change = 0.119117
              Trial  3: relative flow change = 0.000839
                        maximum  flow change = 1.4652 for Link p29
                        maximum  head error  = 0.0023 for Link p29

    23:40:36: Balanced after 3 trials
    23:40:36: Tank T1 is filling at 0.00 m
    23:40:36: Pipe p239 changed from open to temporarily closed
   
  WARNING: Negative pressures at 23:40:36 hrs.
   
    23:45:00: Balancing the network:

              Trial  1: relative flow change = 0.001031
                        maximum  flow change = 0.5950 for Link p110
                        maximum  head error  = 0.0001 for Link p29

              Pipe p239 switched from closed to open
              Trial  2: relative flow change = 0.541101
              Trial  3: relative flow change = 0.402702
              Trial  4: relative flow change = 0.219651
              Trial  5: relative flow change = 0.100026
              Trial  6: relative flow change = 0.031966
              Trial  7: relative flow change = 0.004372
                        maximum  flow change = 12.7522 for Node n31
                        maximum  head error  = 0.0174 for Link p251

    23:45:00: Balanced after 7 trials
    23:45:00: Tank T1 is emptying at 0.01 m
    23:45:00: Pipe p239 changed from temporarily closed to open
   
    23:45:36: Balancing the network:

              Trial  1: relative flow change = 0.000128
                        maximum  flow change = 0.3355 for Link p239
                        maximum  head error  = 0.0000 for Link p251

              Pipe p239 switched from open to closed
              Trial  2: relative flow change = 0.119113
              Trial  3: relative flow change = 0.000827
                        maximum  flow change = 1.4419 for Link p26
                        maximum  head error  = 0.0022 for Link p29

    23:45:36: Balanced after 3 trials
    23:45:36: Tank T1 is filling at 0.00 m
    23:45:36: Pipe p239 changed from open to temporarily closed
   
  WARNING: Negative pressures at 23:45:36 hrs.
   
    23:50:00: Balancing the network:

              Trial  1: relative flow change = 0.001086
                        maximum  flow change = 0.6298 for Link p110
                        maximum  head error  = 0.0001 for Link p29

              Pipe p239 switched from closed to open
              Trial  2: relative flow change = 0.544531
              Trial  3: relative flow change = 0.406576
              Trial  4: relative flow change = 0.222431
              Trial  5: relative flow change = 0.101694
              Trial  6: relative flow change = 0.032807
              Trial  7: relative flow change = 0.004578
                        maximum  flow change = 13.4297 for Link p240
                        maximum  head error  = 0.0192 for Link p251

    23:50:00: Balanced after 7 trials
    23:50:00: Tank T1 is emptying at 0.01 m
    23:50:00: Pipe p239 changed from temporarily closed to open
   
    23:50:37: Balancing the network:

              Trial  1: relative flow change = 0.000138
                        maximum  flow change = 0.3656 for Node n31
                        maximum  head error  = 0.0000 for Link p251

              Pipe p239 switched from open to closed
              Trial  2: relative flow change = 0.119109
              Trial  3: relative flow change = 0.000814
                        maximum  flow change = 1.4172 for Link p26
                        maximum  head error  = 0.0021 for Link p29

    23:50:37: Balanced after 3 trials
    23:50:37: Tank T1 is filling at -0.00 m
    23:50:37: Pipe p239 changed from open to temporarily closed
   
  WARNING: Negative pressures at 23:50:37 hrs.
   
    23:55:00: Balancing the network:

              Trial  1: relative flow change = 0.001140
                        maximum  flow change = 0.6641 for Link p110
                        maximum  head error  = 0.0001 for Link p29

              Pipe p239 switched from closed to open
              Trial  2: relative flow change = 0.548239
              Trial  3: relative flow change = 0.410752
              Trial  4: relative flow change = 0.225426
              Trial  5: relative flow change = 0.103496
              Trial  6: relative flow change = 0.033726
              Trial  7: relative flow change = 0.004812
                        maximum  flow change = 14.1859 for Link p240
                        maximum  head error  = 0.0213 for Link p251

    23:55:00: Balanced after 7 trials
    23:55:00: Tank T1 is emptying at 0.01 m
    23:55:00: Pipe p239 changed from temporarily closed to open
   
    23:55:36: Balancing the network:

              Trial  1: relative flow change = 0.000149
                        maximum  flow change = 0.3970 for Node n31
                        maximum  head error  = 0.0000 for Link p251

              Pipe p239 switched from open to closed
              Trial  2: relative flow change = 0.119105
              Trial  3: relative flow change = 0.000801
                        maximum  flow change = 1.3914 for Link p26
                        maximum  head error  = 0.0020 for Link p29

    23:55:36: Balanced after 3 trials
    23:55:36: Tank T1 is filling at -0.00 m
    23:55:36: Pipe p239 changed from open to temporarily closed
   
  WARNING: Negative pressures at 23:55:36 hrs.
   
    24:00:00: Balancing the network:

              Trial  1: relative flow change = 0.001184
                        maximum  flow change = 0.6920 for Link p110
                        maximum  head error  = 0.0001 for Link p29

              Pipe p239 switched from closed to open
              Trial  2: relative flow change = 0.552168
              Trial  3: relative flow change = 0.415201
              Trial  4: relative flow change = 0.228630
              Trial  5: relative flow change = 0.105427
              Trial  6: relative flow change = 0.034721
              Trial  7: relative flow change = 0.005071
                        maximum  flow change = 15.0240 for Link p239
                        maximum  head error  = 0.0238 for Link p251

    24:00:00: Balanced after 7 trials
    24:00:00: Tank T1 is emptying at 0.01 m
    24:00:00: Pipe p239 changed from temporarily closed to open
   
  Analysis ended Fri Jan 09 01:51:42 2026
