  Page 1                                    Thu Jan 08 19:06:05 2026

  ******************************************************************
  *                           E P A N E T                          *
  *                   Hydraulic and Water Quality                  *
  *                   Analysis for Pipe Networks                   *
  *                         Version 2.2                            *
  ******************************************************************
  
  Analysis begun Thu Jan 08 19:06:05 2026

   
  Hydraulic Status:
  -----------------------------------------------------------------------
     0:00:00: Balancing the network:

              Trial  1: relative flow change = 1.055474
              PRV PRV-1 switched from active to closed
              PRV PRV-2 switched from active to closed
              Trial  2: relative flow change = 3.705559
              PRV PRV-1 switched from closed to active
              PRV PRV-2 switched from closed to active
              PRV PRV-3 switched from active to open
              Pump PUMP_1 switched from open to closed
              Trial  3: relative flow change = 1.047351
              PRV PRV-3 switched from open to active
              Trial  4: relative flow change = 0.646018
              Pump PUMP_1 switched from closed to open
              Trial  5: relative flow change = 0.866765
              PRV PRV-3 switched from active to open
              Trial  6: relative flow change = 0.777611
              PRV PRV-3 switched from open to active
              Trial  7: relative flow change = 0.604851
              Trial  8: relative flow change = 0.416933
              Trial  9: relative flow change = 0.245785
              Trial 10: relative flow change = 0.128121
              Trial 11: relative flow change = 0.065609
              Trial 12: relative flow change = 0.018636
              Trial 13: relative flow change = 0.002329
                        maximum  flow change = 3.3459 for Link p235
                        maximum  head error  = 0.0135 for Link PUMP_1

     0:00:00: Balanced after 13 trials
     0:00:00: Reservoir R1 is emptying
     0:00:00: Reservoir R2 is emptying
     0:00:00: Tank T1 is emptying at 3.50 m
   
  WARNING: Negative pressures at 0:00:00 hrs.
   
     0:05:00: Balancing the network:

              Trial  1: relative flow change = 0.002985
                        maximum  flow change = 1.2216 for Link p110
                        maximum  head error  = 0.0001 for Link PUMP_1

     0:05:00: Balanced after 1 trials
   
  WARNING: Negative pressures at 0:05:00 hrs.
   
     0:10:00: Balancing the network:

              Trial  1: relative flow change = 0.003254
                        maximum  flow change = 1.4464 for Link p227
                        maximum  head error  = 0.0001 for Link PUMP_1

     0:10:00: Balanced after 1 trials
   
  WARNING: Negative pressures at 0:10:00 hrs.
   
     0:15:00: Balancing the network:

              Trial  1: relative flow change = 0.003244
                        maximum  flow change = 1.4992 for Link p227
                        maximum  head error  = 0.0001 for Link PUMP_1

     0:15:00: Balanced after 1 trials
   
  WARNING: Negative pressures at 0:15:00 hrs.
   
     0:20:00: Balancing the network:

              Trial  1: relative flow change = 0.003193
                        maximum  flow change = 1.4815 for Link p227
                        maximum  head error  = 0.0001 for Link PUMP_1

     0:20:00: Balanced after 1 trials
   
  WARNING: Negative pressures at 0:20:00 hrs.
   
     0:25:00: Balancing the network:

              Trial  1: relative flow change = 0.003141
                        maximum  flow change = 1.4472 for Link PRV-1
                        maximum  head error  = 0.0001 for Link PUMP_1

     0:25:00: Balanced after 1 trials
   
  WARNING: Negative pressures at 0:25:00 hrs.
   
     0:30:00: Balancing the network:

              Trial  1: relative flow change = 0.003115
                        maximum  flow change = 1.4146 for Link p227
                        maximum  head error  = 0.0001 for Link PUMP_1

     0:30:00: Balanced after 1 trials
   
  WARNING: Negative pressures at 0:30:00 hrs.
   
     0:35:00: Balancing the network:

              Trial  1: relative flow change = 0.003101
                        maximum  flow change = 1.3962 for Link p227
                        maximum  head error  = 0.0001 for Link PUMP_1

     0:35:00: Balanced after 1 trials
   
  WARNING: Negative pressures at 0:35:00 hrs.
   
     0:40:00: Balancing the network:

              Trial  1: relative flow change = 0.003121
                        maximum  flow change = 1.3848 for Link p227
                        maximum  head error  = 0.0001 for Link PUMP_1

     0:40:00: Balanced after 1 trials
   
  WARNING: Negative pressures at 0:40:00 hrs.
   
     0:45:00: Balancing the network:

              Trial  1: relative flow change = 0.003130
                        maximum  flow change = 1.3914 for Link PRV-1
                        maximum  head error  = 0.0001 for Link PUMP_1

     0:45:00: Balanced after 1 trials
   
  WARNING: Negative pressures at 0:45:00 hrs.
   
     0:50:00: Balancing the network:

              Trial  1: relative flow change = 0.003121
                        maximum  flow change = 1.3919 for Link p227
                        maximum  head error  = 0.0001 for Link PUMP_1

     0:50:00: Balanced after 1 trials
   
  WARNING: Negative pressures at 0:50:00 hrs.
   
     0:55:00: Balancing the network:

              Trial  1: relative flow change = 0.003075
                        maximum  flow change = 1.3832 for Link p227
                        maximum  head error  = 0.0001 for Link PUMP_1

     0:55:00: Balanced after 1 trials
   
  WARNING: Negative pressures at 0:55:00 hrs.
   
     1:00:00: Balancing the network:

              Trial  1: relative flow change = 0.003007
                        maximum  flow change = 1.3559 for Link PRV-1
                        maximum  head error  = 0.0001 for Link PUMP_1

     1:00:00: Balanced after 1 trials
   
  WARNING: Negative pressures at 1:00:00 hrs.
   
     1:05:00: Balancing the network:

              Trial  1: relative flow change = 0.002902
                        maximum  flow change = 1.3187 for Link p227
                        maximum  head error  = 0.0001 for Link PUMP_1

     1:05:00: Balanced after 1 trials
   
  WARNING: Negative pressures at 1:05:00 hrs.
   
     1:10:00: Balancing the network:

              Trial  1: relative flow change = 0.002796
                        maximum  flow change = 1.2630 for Link p227
                        maximum  head error  = 0.0001 for Link PUMP_1

     1:10:00: Balanced after 1 trials
   
  WARNING: Negative pressures at 1:10:00 hrs.
   
     1:15:00: Balancing the network:

              Trial  1: relative flow change = 0.002713
                        maximum  flow change = 1.2078 for Link p227
                        maximum  head error  = 0.0000 for Link PUMP_1

     1:15:00: Balanced after 1 trials
   
  WARNING: Negative pressures at 1:15:00 hrs.
   
     1:20:00: Balancing the network:

              Trial  1: relative flow change = 0.002660
                        maximum  flow change = 1.1655 for Link PRV-1
                        maximum  head error  = 0.0000 for Link PUMP_1

     1:20:00: Balanced after 1 trials
   
  WARNING: Negative pressures at 1:20:00 hrs.
   
     1:25:00: Balancing the network:

              Trial  1: relative flow change = 0.002630
                        maximum  flow change = 1.1378 for Link PRV-1
                        maximum  head error  = 0.0000 for Link PUMP_1

     1:25:00: Balanced after 1 trials
   
  WARNING: Negative pressures at 1:25:00 hrs.
   
     1:30:00: Balancing the network:

              Trial  1: relative flow change = 0.002633
                        maximum  flow change = 1.1207 for Link PRV-1
                        maximum  head error  = 0.0000 for Link PUMP_1

     1:30:00: Balanced after 1 trials
   
  WARNING: Negative pressures at 1:30:00 hrs.
   
     1:35:00: Balancing the network:

              Trial  1: relative flow change = 0.002636
                        maximum  flow change = 1.1196 for Link p227
                        maximum  head error  = 0.0000 for Link PUMP_1

     1:35:00: Balanced after 1 trials
   
  WARNING: Negative pressures at 1:35:00 hrs.
   
     1:40:00: Balancing the network:

              Trial  1: relative flow change = 0.002614
                        maximum  flow change = 1.1170 for Link PRV-1
                        maximum  head error  = 0.0000 for Link PUMP_1

     1:40:00: Balanced after 1 trials
   
  WARNING: Negative pressures at 1:40:00 hrs.
   
     1:45:00: Balancing the network:

              Trial  1: relative flow change = 0.002557
                        maximum  flow change = 1.1001 for Link PRV-1
                        maximum  head error  = 0.0000 for Link PUMP_1

     1:45:00: Balanced after 1 trials
   
  WARNING: Negative pressures at 1:45:00 hrs.
   
     1:50:00: Balancing the network:

              Trial  1: relative flow change = 0.002452
                        maximum  flow change = 1.0665 for Link p227
                        maximum  head error  = 0.0000 for Link PUMP_1

     1:50:00: Balanced after 1 trials
   
  WARNING: Negative pressures at 1:50:00 hrs.
   
     1:55:00: Balancing the network:

              Trial  1: relative flow change = 0.002310
                        maximum  flow change = 1.0100 for Link PRV-1
                        maximum  head error  = 0.0000 for Link PUMP_1

     1:55:00: Balanced after 1 trials
   
  WARNING: Negative pressures at 1:55:00 hrs.
   
     2:00:00: Balancing the network:

              Trial  1: relative flow change = 0.002117
                        maximum  flow change = 0.9368 for Link PRV-1
                        maximum  head error  = 0.0000 for Link PUMP_1

     2:00:00: Balanced after 1 trials
   
  WARNING: Negative pressures at 2:00:00 hrs.
   
     2:05:00: Balancing the network:

              Trial  1: relative flow change = 0.001935
                        maximum  flow change = 0.8390 for Link PRV-1
                        maximum  head error  = 0.0000 for Link PUMP_1

     2:05:00: Balanced after 1 trials
   
  WARNING: Negative pressures at 2:05:00 hrs.
   
     2:10:00: Balancing the network:

              Trial  1: relative flow change = 0.001772
                        maximum  flow change = 0.7507 for Link p227
                        maximum  head error  = 0.0000 for Link PUMP_1

     2:10:00: Balanced after 1 trials
   
  WARNING: Negative pressures at 2:10:00 hrs.
   
     2:15:00: Balancing the network:

              Trial  1: relative flow change = 0.001639
                        maximum  flow change = 0.6723 for Link p227
                        maximum  head error  = 0.0000 for Link PUMP_1

     2:15:00: Balanced after 1 trials
   
  WARNING: Negative pressures at 2:15:00 hrs.
   
     2:20:00: Balancing the network:

              Trial  1: relative flow change = 0.001560
                        maximum  flow change = 0.6080 for Link p227
                        maximum  head error  = 0.0000 for Link PUMP_1

     2:20:00: Balanced after 1 trials
   
  WARNING: Negative pressures at 2:20:00 hrs.
   
     2:25:00: Balancing the network:

              Trial  1: relative flow change = 0.001526
                        maximum  flow change = 0.5717 for Link PRV-1
                        maximum  head error  = 0.0000 for Link PUMP_1

     2:25:00: Balanced after 1 trials
   
  WARNING: Negative pressures at 2:25:00 hrs.
   
     2:30:00: Balancing the network:

              Trial  1: relative flow change = 0.001516
                        maximum  flow change = 0.5557 for Link p227
                        maximum  head error  = 0.0000 for Link PUMP_1

     2:30:00: Balanced after 1 trials
   
  WARNING: Negative pressures at 2:30:00 hrs.
   
     2:35:00: Balancing the network:

              Trial  1: relative flow change = 0.001541
                        maximum  flow change = 0.5490 for Link p227
                        maximum  head error  = 0.0000 for Link PUMP_1

     2:35:00: Balanced after 1 trials
   
  WARNING: Negative pressures at 2:35:00 hrs.
   
     2:40:00: Balancing the network:

              Trial  1: relative flow change = 0.001554
                        maximum  flow change = 0.5601 for Link PRV-1
                        maximum  head error  = 0.0000 for Link PUMP_1

     2:40:00: Balanced after 1 trials
   
  WARNING: Negative pressures at 2:40:00 hrs.
   
     2:45:00: Balancing the network:

              Trial  1: relative flow change = 0.001563
                        maximum  flow change = 0.5626 for Link p227
                        maximum  head error  = 0.0000 for Link PUMP_1

     2:45:00: Balanced after 1 trials
   
  WARNING: Negative pressures at 2:45:00 hrs.
   
     2:50:00: Balancing the network:

              Trial  1: relative flow change = 0.001543
                        maximum  flow change = 0.5648 for Link p227
                        maximum  head error  = 0.0000 for Link PUMP_1

     2:50:00: Balanced after 1 trials
   
  WARNING: Negative pressures at 2:50:00 hrs.
   
     2:55:00: Balancing the network:

              Trial  1: relative flow change = 0.001473
                        maximum  flow change = 0.5519 for Link PRV-1
                        maximum  head error  = 0.0000 for Link PUMP_1

     2:55:00: Balanced after 1 trials
   
  WARNING: Negative pressures at 2:55:00 hrs.
   
     3:00:00: Balancing the network:

              Trial  1: relative flow change = 0.001382
                        maximum  flow change = 0.5142 for Link p227
                        maximum  head error  = 0.0000 for Link PUMP_1

     3:00:00: Balanced after 1 trials
   
  WARNING: Negative pressures at 3:00:00 hrs.
   
     3:05:00: Balancing the network:

              Trial  1: relative flow change = 0.001271
                        maximum  flow change = 0.5069 for Link p239
                        maximum  head error  = 0.0000 for Link PUMP_1

     3:05:00: Balanced after 1 trials
   
  WARNING: Negative pressures at 3:05:00 hrs.
   
     3:09:45: Balancing the network:

              Trial  1: relative flow change = 0.000530
                        maximum  flow change = 0.4465 for Link p240
                        maximum  head error  = 0.0000 for Link p15

              Pipe p239 switched from open to closed
              Trial  2: relative flow change = 0.255709
              Trial  3: relative flow change = 0.023477
              Trial  4: relative flow change = 0.005246
                        maximum  flow change = 6.9892 for Node n368
                        maximum  head error  = 0.0349 for Link p11

     3:09:45: Balanced after 4 trials
     3:09:45: Tank T1 is filling at -0.00 m
     3:09:45: Pipe p239 changed from open to temporarily closed
   
  WARNING: Negative pressures at 3:09:45 hrs.
   
     3:10:00: Balancing the network:

              Trial  1: relative flow change = 0.001163
                        maximum  flow change = 0.5595 for Link p11
                        maximum  head error  = 0.0002 for Link p11

              Pipe p239 switched from closed to open
              Trial  2: relative flow change = 0.548071
              Trial  3: relative flow change = 0.370947
              Trial  4: relative flow change = 0.178645
              Trial  5: relative flow change = 0.062265
              Trial  6: relative flow change = 0.011834
              Trial  7: relative flow change = 0.000924
                        maximum  flow change = 1.2660 for Link p13
                        maximum  head error  = 0.0011 for Link p13

     3:10:00: Balanced after 7 trials
     3:10:00: Tank T1 is emptying at 0.00 m
     3:10:00: Pipe p239 changed from temporarily closed to open
   
  WARNING: Negative pressures at 3:10:00 hrs.
   
     3:10:03: Balancing the network:

              Trial  1: relative flow change = 0.000018
                        maximum  flow change = 0.0308 for Link p251
                        maximum  head error  = 0.0000 for Link p13

              Pipe p239 switched from open to closed
              Trial  2: relative flow change = 0.255862
              Trial  3: relative flow change = 0.023516
              Trial  4: relative flow change = 0.005237
                        maximum  flow change = 6.9874 for Node n368
                        maximum  head error  = 0.0348 for Link p11

     3:10:03: Balanced after 4 trials
     3:10:03: Tank T1 is filling at -0.00 m
     3:10:03: Pipe p239 changed from open to temporarily closed
   
  WARNING: Negative pressures at 3:10:03 hrs.
   
     3:15:00: Balancing the network:

              Trial  1: relative flow change = 0.001043
                        maximum  flow change = 0.5583 for Link p11
                        maximum  head error  = 0.0002 for Link p11

              Pipe p239 switched from closed to open
              Trial  2: relative flow change = 0.548249
              Trial  3: relative flow change = 0.371130
              Trial  4: relative flow change = 0.178742
              Trial  5: relative flow change = 0.062285
              Trial  6: relative flow change = 0.011825
              Trial  7: relative flow change = 0.000914
                        maximum  flow change = 1.2367 for Link p251
                        maximum  head error  = 0.0010 for Link p13

     3:15:00: Balanced after 7 trials
     3:15:00: Tank T1 is emptying at 0.02 m
     3:15:00: Pipe p239 changed from temporarily closed to open
   
  WARNING: Negative pressures at 3:15:00 hrs.
   
     3:16:01: Balancing the network:

              Trial  1: relative flow change = 0.000096
                        maximum  flow change = 0.0986 for Link p239
                        maximum  head error  = 0.0000 for Link p15

              Pipe p239 switched from open to closed
              Trial  2: relative flow change = 0.255995
              Trial  3: relative flow change = 0.023548
              Trial  4: relative flow change = 0.005228
                        maximum  flow change = 6.9860 for Node n368
                        maximum  head error  = 0.0347 for Link p11

     3:16:01: Balanced after 4 trials
     3:16:01: Tank T1 is filling at 0.00 m
     3:16:01: Pipe p239 changed from open to temporarily closed
   
  WARNING: Negative pressures at 3:16:01 hrs.
   
     3:20:00: Balancing the network:

              Trial  1: relative flow change = 0.000931
                        maximum  flow change = 0.5574 for Link p11
                        maximum  head error  = 0.0002 for Link p11

              Pipe p239 switched from closed to open
              Trial  2: relative flow change = 0.548238
              Trial  3: relative flow change = 0.371112
              Trial  4: relative flow change = 0.178716
              Trial  5: relative flow change = 0.062274
              Trial  6: relative flow change = 0.011807
              Trial  7: relative flow change = 0.000906
                        maximum  flow change = 1.2127 for Link p251
                        maximum  head error  = 0.0010 for Link p13

     3:20:00: Balanced after 7 trials
     3:20:00: Tank T1 is emptying at 0.01 m
     3:20:00: Pipe p239 changed from temporarily closed to open
   
  WARNING: Negative pressures at 3:20:00 hrs.
   
     3:20:50: Balancing the network:

              Trial  1: relative flow change = 0.000080
                        maximum  flow change = 0.0813 for Link p240
                        maximum  head error  = 0.0000 for Link p15

              Pipe p239 switched from open to closed
              Trial  2: relative flow change = 0.256104
              Trial  3: relative flow change = 0.023575
              Trial  4: relative flow change = 0.005222
                        maximum  flow change = 6.9850 for Node n368
                        maximum  head error  = 0.0346 for Link p11

     3:20:50: Balanced after 4 trials
     3:20:50: Tank T1 is filling at -0.00 m
     3:20:50: Pipe p239 changed from open to temporarily closed
   
  WARNING: Negative pressures at 3:20:50 hrs.
   
     3:25:00: Balancing the network:

              Trial  1: relative flow change = 0.000872
                        maximum  flow change = 0.5566 for Link p11
                        maximum  head error  = 0.0002 for Link p11

              Pipe p239 switched from closed to open
              Trial  2: relative flow change = 0.548270
              Trial  3: relative flow change = 0.371138
              Trial  4: relative flow change = 0.178720
              Trial  5: relative flow change = 0.062277
              Trial  6: relative flow change = 0.011794
              Trial  7: relative flow change = 0.000900
                        maximum  flow change = 1.1932 for Link p251
                        maximum  head error  = 0.0010 for Link p13

     3:25:00: Balanced after 7 trials
     3:25:00: Tank T1 is emptying at 0.02 m
     3:25:00: Pipe p239 changed from temporarily closed to open
   
  WARNING: Negative pressures at 3:25:00 hrs.
   
     3:25:52: Balancing the network:

              Trial  1: relative flow change = 0.000083
                        maximum  flow change = 0.0844 for Link p240
                        maximum  head error  = 0.0000 for Link p15

              Pipe p239 switched from open to closed
              Trial  2: relative flow change = 0.256203
              Trial  3: relative flow change = 0.023599
              Trial  4: relative flow change = 0.005216
                        maximum  flow change = 6.9840 for Node n368
                        maximum  head error  = 0.0346 for Link p11

     3:25:52: Balanced after 4 trials
     3:25:52: Tank T1 is filling at -0.00 m
     3:25:52: Pipe p239 changed from open to temporarily closed
   
  WARNING: Negative pressures at 3:25:52 hrs.
   
     3:30:00: Balancing the network:

              Trial  1: relative flow change = 0.000838
                        maximum  flow change = 0.5558 for Link p11
                        maximum  head error  = 0.0002 for Link p11

              Pipe p239 switched from closed to open
              Trial  2: relative flow change = 0.548302
              Trial  3: relative flow change = 0.371162
              Trial  4: relative flow change = 0.178729
              Trial  5: relative flow change = 0.062280
              Trial  6: relative flow change = 0.011784
              Trial  7: relative flow change = 0.000894
                        maximum  flow change = 1.1770 for Link p251
                        maximum  head error  = 0.0009 for Link p13

     3:30:00: Balanced after 7 trials
     3:30:00: Tank T1 is emptying at 0.01 m
     3:30:00: Pipe p239 changed from temporarily closed to open
   
  WARNING: Negative pressures at 3:30:00 hrs.
   
     3:30:51: Balancing the network:

              Trial  1: relative flow change = 0.000081
                        maximum  flow change = 0.0828 for Link p240
                        maximum  head error  = 0.0000 for Link p15

              Pipe p239 switched from open to closed
              Trial  2: relative flow change = 0.256296
              Trial  3: relative flow change = 0.023622
              Trial  4: relative flow change = 0.005211
                        maximum  flow change = 6.9832 for Node n368
                        maximum  head error  = 0.0345 for Link p11

     3:30:51: Balanced after 4 trials
     3:30:51: Tank T1 is filling at 0.00 m
     3:30:51: Pipe p239 changed from open to temporarily closed
   
  WARNING: Negative pressures at 3:30:51 hrs.
   
     3:35:00: Balancing the network:

              Trial  1: relative flow change = 0.000834
                        maximum  flow change = 0.5549 for Link p11
                        maximum  head error  = 0.0002 for Link p11

              Pipe p239 switched from closed to open
              Trial  2: relative flow change = 0.548338
              Trial  3: relative flow change = 0.371190
              Trial  4: relative flow change = 0.178743
              Trial  5: relative flow change = 0.062285
              Trial  6: relative flow change = 0.011774
              Trial  7: relative flow change = 0.000888
                        maximum  flow change = 1.1610 for Link p13
                        maximum  head error  = 0.0009 for Link p13

     3:35:00: Balanced after 7 trials
     3:35:00: Tank T1 is emptying at 0.02 m
     3:35:00: Pipe p239 changed from temporarily closed to open
   
  WARNING: Negative pressures at 3:35:00 hrs.
   
     3:35:52: Balancing the network:

              Trial  1: relative flow change = 0.000082
                        maximum  flow change = 0.0843 for Link p240
                        maximum  head error  = 0.0000 for Link p15

              Pipe p239 switched from open to closed
              Trial  2: relative flow change = 0.256386
              Trial  3: relative flow change = 0.023645
              Trial  4: relative flow change = 0.005205
                        maximum  flow change = 6.9823 for Node n368
                        maximum  head error  = 0.0344 for Link p11

     3:35:52: Balanced after 4 trials
     3:35:52: Tank T1 is filling at -0.00 m
     3:35:52: Pipe p239 changed from open to temporarily closed
   
  WARNING: Negative pressures at 3:35:52 hrs.
   
     3:40:00: Balancing the network:

              Trial  1: relative flow change = 0.000872
                        maximum  flow change = 0.5539 for Link p11
                        maximum  head error  = 0.0002 for Link p11

              Pipe p239 switched from closed to open
              Trial  2: relative flow change = 0.548378
              Trial  3: relative flow change = 0.371217
              Trial  4: relative flow change = 0.178757
              Trial  5: relative flow change = 0.062290
              Trial  6: relative flow change = 0.011765
              Trial  7: relative flow change = 0.000883
                        maximum  flow change = 1.1438 for Link p251
                        maximum  head error  = 0.0009 for Link p13

     3:40:00: Balanced after 7 trials
     3:40:00: Tank T1 is emptying at 0.01 m
     3:40:00: Pipe p239 changed from temporarily closed to open
   
  WARNING: Negative pressures at 3:40:00 hrs.
   
     3:40:51: Balancing the network:

              Trial  1: relative flow change = 0.000081
                        maximum  flow change = 0.0827 for Link p239
                        maximum  head error  = 0.0000 for Link p15

              Pipe p239 switched from open to closed
              Trial  2: relative flow change = 0.256484
              Trial  3: relative flow change = 0.023670
              Trial  4: relative flow change = 0.005199
                        maximum  flow change = 6.9812 for Node n368
                        maximum  head error  = 0.0344 for Link p11

     3:40:51: Balanced after 4 trials
     3:40:51: Tank T1 is filling at 0.00 m
     3:40:51: Pipe p239 changed from open to temporarily closed
   
  WARNING: Negative pressures at 3:40:51 hrs.
   
     3:45:00: Balancing the network:

              Trial  1: relative flow change = 0.000898
                        maximum  flow change = 0.5528 for Link p11
                        maximum  head error  = 0.0002 for Link p11

              Pipe p239 switched from closed to open
              Trial  2: relative flow change = 0.548419
              Trial  3: relative flow change = 0.371247
              Trial  4: relative flow change = 0.178775
              Trial  5: relative flow change = 0.062297
              Trial  6: relative flow change = 0.011755
              Trial  7: relative flow change = 0.000876
                        maximum  flow change = 1.1258 for Link p251
                        maximum  head error  = 0.0009 for Link p13

     3:45:00: Balanced after 7 trials
     3:45:00: Tank T1 is emptying at 0.02 m
     3:45:00: Pipe p239 changed from temporarily closed to open
   
  WARNING: Negative pressures at 3:45:00 hrs.
   
     3:45:52: Balancing the network:

              Trial  1: relative flow change = 0.000082
                        maximum  flow change = 0.0842 for Link p239
                        maximum  head error  = 0.0000 for Link p15

              Pipe p239 switched from open to closed
              Trial  2: relative flow change = 0.256584
              Trial  3: relative flow change = 0.023697
              Trial  4: relative flow change = 0.005192
                        maximum  flow change = 6.9801 for Node n368
                        maximum  head error  = 0.0343 for Link p11

     3:45:52: Balanced after 4 trials
     3:45:52: Tank T1 is filling at -0.00 m
     3:45:52: Pipe p239 changed from open to temporarily closed
   
  WARNING: Negative pressures at 3:45:52 hrs.
   
     3:50:00: Balancing the network:

              Trial  1: relative flow change = 0.000923
                        maximum  flow change = 0.5517 for Link p11
                        maximum  head error  = 0.0002 for Link p11

              Pipe p239 switched from closed to open
              Trial  2: relative flow change = 0.548460
              Trial  3: relative flow change = 0.371277
              Trial  4: relative flow change = 0.178792
              Trial  5: relative flow change = 0.062305
              Trial  6: relative flow change = 0.011746
              Trial  7: relative flow change = 0.000870
                        maximum  flow change = 1.1072 for Link p13
                        maximum  head error  = 0.0008 for Link p13

     3:50:00: Balanced after 7 trials
     3:50:00: Tank T1 is emptying at 0.01 m
     3:50:00: Pipe p239 changed from temporarily closed to open
   
  WARNING: Negative pressures at 3:50:00 hrs.
   
     3:50:51: Balancing the network:

              Trial  1: relative flow change = 0.000081
                        maximum  flow change = 0.0826 for Link p240
                        maximum  head error  = 0.0000 for Link p15

              Pipe p239 switched from open to closed
              Trial  2: relative flow change = 0.256690
              Trial  3: relative flow change = 0.023726
              Trial  4: relative flow change = 0.005184
                        maximum  flow change = 6.9788 for Node n368
                        maximum  head error  = 0.0342 for Link p11

     3:50:51: Balanced after 4 trials
     3:50:51: Tank T1 is filling at 0.00 m
     3:50:51: Pipe p239 changed from open to temporarily closed
   
  WARNING: Negative pressures at 3:50:51 hrs.
   
     3:55:00: Balancing the network:

              Trial  1: relative flow change = 0.000913
                        maximum  flow change = 0.5505 for Link p11
                        maximum  head error  = 0.0002 for Link p11

              Pipe p239 switched from closed to open
              Trial  2: relative flow change = 0.548502
              Trial  3: relative flow change = 0.371311
              Trial  4: relative flow change = 0.178813
              Trial  5: relative flow change = 0.062315
              Trial  6: relative flow change = 0.011738
              Trial  7: relative flow change = 0.000863
                        maximum  flow change = 1.0894 for Link p251
                        maximum  head error  = 0.0008 for Link p13

     3:55:00: Balanced after 7 trials
     3:55:00: Tank T1 is emptying at 0.02 m
     3:55:00: Pipe p239 changed from temporarily closed to open
   
  WARNING: Negative pressures at 3:55:00 hrs.
   
     3:55:52: Balancing the network:

              Trial  1: relative flow change = 0.000082
                        maximum  flow change = 0.0841 for Link p239
                        maximum  head error  = 0.0000 for Link p15

              Pipe p239 switched from open to closed
              Trial  2: relative flow change = 0.256790
              Trial  3: relative flow change = 0.023755
              Trial  4: relative flow change = 0.005176
                        maximum  flow change = 6.9775 for Node n368
                        maximum  head error  = 0.0341 for Link p11

     3:55:52: Balanced after 4 trials
     3:55:52: Tank T1 is filling at -0.00 m
     3:55:52: Pipe p239 changed from open to temporarily closed
   
  WARNING: Negative pressures at 3:55:52 hrs.
   
     4:00:00: Balancing the network:

              Trial  1: relative flow change = 0.000878
                        maximum  flow change = 0.5494 for Link p11
                        maximum  head error  = 0.0002 for Link p11

              Pipe p239 switched from closed to open
              Trial  2: relative flow change = 0.548540
              Trial  3: relative flow change = 0.371342
              Trial  4: relative flow change = 0.178833
              Trial  5: relative flow change = 0.062326
              Trial  6: relative flow change = 0.011731
              Trial  7: relative flow change = 0.000858
                        maximum  flow change = 1.0730 for Link p251
                        maximum  head error  = 0.0008 for Link p13

     4:00:00: Balanced after 7 trials
     4:00:00: Tank T1 is emptying at 0.01 m
     4:00:00: Pipe p239 changed from temporarily closed to open
   
  WARNING: Negative pressures at 4:00:00 hrs.
   
     4:00:51: Balancing the network:

              Trial  1: relative flow change = 0.000080
                        maximum  flow change = 0.0825 for Link p239
                        maximum  head error  = 0.0000 for Link p15

              Pipe p239 switched from open to closed
              Trial  2: relative flow change = 0.256886
              Trial  3: relative flow change = 0.023782
              Trial  4: relative flow change = 0.005169
                        maximum  flow change = 6.9763 for Node n368
                        maximum  head error  = 0.0340 for Link p11

     4:00:51: Balanced after 4 trials
     4:00:51: Tank T1 is filling at 0.00 m
     4:00:51: Pipe p239 changed from open to temporarily closed
   
  WARNING: Negative pressures at 4:00:51 hrs.
   
     4:05:00: Balancing the network:

              Trial  1: relative flow change = 0.000789
                        maximum  flow change = 0.5485 for Link p11
                        maximum  head error  = 0.0002 for Link p11

              Pipe p239 switched from closed to open
              Trial  2: relative flow change = 0.548574
              Trial  3: relative flow change = 0.371375
              Trial  4: relative flow change = 0.178854
              Trial  5: relative flow change = 0.062337
              Trial  6: relative flow change = 0.011727
              Trial  7: relative flow change = 0.000854
                        maximum  flow change = 1.0601 for Link p13
                        maximum  head error  = 0.0008 for Link p13

     4:05:00: Balanced after 7 trials
     4:05:00: Tank T1 is emptying at 0.02 m
     4:05:00: Pipe p239 changed from temporarily closed to open
   
  WARNING: Negative pressures at 4:05:00 hrs.
   
     4:05:52: Balancing the network:

              Trial  1: relative flow change = 0.000081
                        maximum  flow change = 0.0840 for Link p239
                        maximum  head error  = 0.0000 for Link p15

              Pipe p239 switched from open to closed
              Trial  2: relative flow change = 0.256963
              Trial  3: relative flow change = 0.023805
              Trial  4: relative flow change = 0.005165
                        maximum  flow change = 6.9753 for Node n368
                        maximum  head error  = 0.0340 for Link p11

     4:05:52: Balanced after 4 trials
     4:05:52: Tank T1 is filling at 0.00 m
     4:05:52: Pipe p239 changed from open to temporarily closed
   
  WARNING: Negative pressures at 4:05:52 hrs.
   
     4:10:00: Balancing the network:

              Trial  1: relative flow change = 0.000679
                        maximum  flow change = 0.5481 for Link p11
                        maximum  head error  = 0.0002 for Link p11

              Pipe p239 switched from closed to open
              Trial  2: relative flow change = 0.548600
              Trial  3: relative flow change = 0.371401
              Trial  4: relative flow change = 0.178871
              Trial  5: relative flow change = 0.062346
              Trial  6: relative flow change = 0.011724
              Trial  7: relative flow change = 0.000851
                        maximum  flow change = 1.0513 for Link p251
                        maximum  head error  = 0.0007 for Link p13

     4:10:00: Balanced after 7 trials
     4:10:00: Tank T1 is emptying at 0.02 m
     4:10:00: Pipe p239 changed from temporarily closed to open
   
  WARNING: Negative pressures at 4:10:00 hrs.
   
     4:10:52: Balancing the network:

              Trial  1: relative flow change = 0.000081
                        maximum  flow change = 0.0840 for Link p239
                        maximum  head error  = 0.0000 for Link p15

              Pipe p239 switched from open to closed
              Trial  2: relative flow change = 0.257021
              Trial  3: relative flow change = 0.023821
              Trial  4: relative flow change = 0.005165
                        maximum  flow change = 6.9747 for Node n368
                        maximum  head error  = 0.0339 for Link p11

     4:10:52: Balanced after 4 trials
     4:10:52: Tank T1 is filling at -0.00 m
     4:10:52: Pipe p239 changed from open to temporarily closed
   
  WARNING: Negative pressures at 4:10:52 hrs.
   
     4:15:00: Balancing the network:

              Trial  1: relative flow change = 0.000557
                        maximum  flow change = 0.5479 for Link p11
                        maximum  head error  = 0.0002 for Link p11

              Pipe p239 switched from closed to open
              Trial  2: relative flow change = 0.548615
              Trial  3: relative flow change = 0.371421
              Trial  4: relative flow change = 0.178883
              Trial  5: relative flow change = 0.062352
              Trial  6: relative flow change = 0.011723
              Trial  7: relative flow change = 0.000849
                        maximum  flow change = 1.0465 for Link p251
                        maximum  head error  = 0.0007 for Link p13

     4:15:00: Balanced after 7 trials
     4:15:00: Tank T1 is emptying at 0.01 m
     4:15:00: Pipe p239 changed from temporarily closed to open
   
  WARNING: Negative pressures at 4:15:00 hrs.
   
     4:15:51: Balancing the network:

              Trial  1: relative flow change = 0.000080
                        maximum  flow change = 0.0824 for Link p240
                        maximum  head error  = 0.0000 for Link p15

              Pipe p239 switched from open to closed
              Trial  2: relative flow change = 0.257058
              Trial  3: relative flow change = 0.023830
              Trial  4: relative flow change = 0.005165
                        maximum  flow change = 6.9744 for Node n368
                        maximum  head error  = 0.0339 for Link p11

     4:15:51: Balanced after 4 trials
     4:15:51: Tank T1 is filling at 0.00 m
     4:15:51: Pipe p239 changed from open to temporarily closed
   
  WARNING: Negative pressures at 4:15:51 hrs.
   
     4:20:00: Balancing the network:

              Trial  1: relative flow change = 0.000448
                        maximum  flow change = 0.5480 for Link p11
                        maximum  head error  = 0.0002 for Link p11

              Pipe p239 switched from closed to open
              Trial  2: relative flow change = 0.548631
              Trial  3: relative flow change = 0.371441
              Trial  4: relative flow change = 0.178894
              Trial  5: relative flow change = 0.062357
              Trial  6: relative flow change = 0.011723
              Trial  7: relative flow change = 0.000849
                        maximum  flow change = 1.0458 for Link p251
                        maximum  head error  = 0.0007 for Link p13

     4:20:00: Balanced after 7 trials
     4:20:00: Tank T1 is emptying at 0.02 m
     4:20:00: Pipe p239 changed from temporarily closed to open
   
  WARNING: Negative pressures at 4:20:00 hrs.
   
     4:20:52: Balancing the network:

              Trial  1: relative flow change = 0.000081
                        maximum  flow change = 0.0840 for Link p240
                        maximum  head error  = 0.0000 for Link p15

              Pipe p239 switched from open to closed
              Trial  2: relative flow change = 0.257075
              Trial  3: relative flow change = 0.023832
              Trial  4: relative flow change = 0.005165
                        maximum  flow change = 6.9746 for Node n368
                        maximum  head error  = 0.0339 for Link p11

     4:20:52: Balanced after 4 trials
     4:20:52: Tank T1 is filling at -0.00 m
     4:20:52: Pipe p239 changed from open to temporarily closed
   
  WARNING: Negative pressures at 4:20:52 hrs.
   
     4:25:00: Balancing the network:

              Trial  1: relative flow change = 0.000436
                        maximum  flow change = 0.5484 for Link p11
                        maximum  head error  = 0.0002 for Link p11

              Pipe p239 switched from closed to open
              Trial  2: relative flow change = 0.548637
              Trial  3: relative flow change = 0.371451
              Trial  4: relative flow change = 0.178899
              Trial  5: relative flow change = 0.062357
              Trial  6: relative flow change = 0.011725
              Trial  7: relative flow change = 0.000850
                        maximum  flow change = 1.0486 for Link p251
                        maximum  head error  = 0.0007 for Link p13

     4:25:00: Balanced after 7 trials
     4:25:00: Tank T1 is emptying at 0.01 m
     4:25:00: Pipe p239 changed from temporarily closed to open
   
  WARNING: Negative pressures at 4:25:00 hrs.
   
     4:25:51: Balancing the network:

              Trial  1: relative flow change = 0.000080
                        maximum  flow change = 0.0824 for Link p239
                        maximum  head error  = 0.0000 for Link p15

              Pipe p239 switched from open to closed
              Trial  2: relative flow change = 0.257075
              Trial  3: relative flow change = 0.023828
              Trial  4: relative flow change = 0.005166
                        maximum  flow change = 6.9750 for Node n368
                        maximum  head error  = 0.0339 for Link p11

     4:25:51: Balanced after 4 trials
     4:25:51: Tank T1 is filling at 0.00 m
     4:25:51: Pipe p239 changed from open to temporarily closed
   
  WARNING: Negative pressures at 4:25:51 hrs.
   
     4:30:00: Balancing the network:

              Trial  1: relative flow change = 0.000497
                        maximum  flow change = 0.5489 for Link p11
                        maximum  head error  = 0.0002 for Link p11

              Pipe p239 switched from closed to open
              Trial  2: relative flow change = 0.548646
              Trial  3: relative flow change = 0.371460
              Trial  4: relative flow change = 0.178904
              Trial  5: relative flow change = 0.062358
              Trial  6: relative flow change = 0.011728
              Trial  7: relative flow change = 0.000852
                        maximum  flow change = 1.0536 for Link p13
                        maximum  head error  = 0.0007 for Link p13

     4:30:00: Balanced after 7 trials
     4:30:00: Tank T1 is emptying at 0.02 m
     4:30:00: Pipe p239 changed from temporarily closed to open
   
  WARNING: Negative pressures at 4:30:00 hrs.
   
     4:30:52: Balancing the network:

              Trial  1: relative flow change = 0.000081
                        maximum  flow change = 0.0840 for Link p240
                        maximum  head error  = 0.0000 for Link p15

              Pipe p239 switched from open to closed
              Trial  2: relative flow change = 0.257062
              Trial  3: relative flow change = 0.023821
              Trial  4: relative flow change = 0.005166
                        maximum  flow change = 6.9757 for Node n368
                        maximum  head error  = 0.0340 for Link p11

     4:30:52: Balanced after 4 trials
     4:30:52: Tank T1 is filling at -0.00 m
     4:30:52: Pipe p239 changed from open to temporarily closed
   
  WARNING: Negative pressures at 4:30:52 hrs.
   
     4:35:00: Balancing the network:

              Trial  1: relative flow change = 0.000567
                        maximum  flow change = 0.5496 for Link p11
                        maximum  head error  = 0.0002 for Link p11

              Pipe p239 switched from closed to open
              Trial  2: relative flow change = 0.548642
              Trial  3: relative flow change = 0.371460
              Trial  4: relative flow change = 0.178903
              Trial  5: relative flow change = 0.062355
              Trial  6: relative flow change = 0.011731
              Trial  7: relative flow change = 0.000854
                        maximum  flow change = 1.0608 for Link p13
                        maximum  head error  = 0.0008 for Link p13

     4:35:00: Balanced after 7 trials
     4:35:00: Tank T1 is emptying at 0.01 m
     4:35:00: Pipe p239 changed from temporarily closed to open
   
  WARNING: Negative pressures at 4:35:00 hrs.
   
     4:35:51: Balancing the network:

              Trial  1: relative flow change = 0.000080
                        maximum  flow change = 0.0824 for Link p240
                        maximum  head error  = 0.0000 for Link p15

              Pipe p239 switched from open to closed
              Trial  2: relative flow change = 0.257034
              Trial  3: relative flow change = 0.023809
              Trial  4: relative flow change = 0.005167
                        maximum  flow change = 6.9765 for Node n368
                        maximum  head error  = 0.0340 for Link p11

     4:35:51: Balanced after 4 trials
     4:35:51: Tank T1 is filling at 0.00 m
     4:35:51: Pipe p239 changed from open to temporarily closed
   
  WARNING: Negative pressures at 4:35:51 hrs.
   
     4:40:00: Balancing the network:

              Trial  1: relative flow change = 0.000625
                        maximum  flow change = 0.5503 for Link p11
                        maximum  head error  = 0.0002 for Link p11

              Pipe p239 switched from closed to open
              Trial  2: relative flow change = 0.548631
              Trial  3: relative flow change = 0.371456
              Trial  4: relative flow change = 0.178899
              Trial  5: relative flow change = 0.062351
              Trial  6: relative flow change = 0.011736
              Trial  7: relative flow change = 0.000857
                        maximum  flow change = 1.0698 for Link p251
                        maximum  head error  = 0.0008 for Link p13

     4:40:00: Balanced after 7 trials
     4:40:00: Tank T1 is emptying at 0.02 m
     4:40:00: Pipe p239 changed from temporarily closed to open
   
  WARNING: Negative pressures at 4:40:00 hrs.
   
     4:40:52: Balancing the network:

              Trial  1: relative flow change = 0.000082
                        maximum  flow change = 0.0840 for Link p239
                        maximum  head error  = 0.0000 for Link p15

              Pipe p239 switched from open to closed
              Trial  2: relative flow change = 0.256993
              Trial  3: relative flow change = 0.023794
              Trial  4: relative flow change = 0.005169
                        maximum  flow change = 6.9774 for Node n368
                        maximum  head error  = 0.0341 for Link p11

     4:40:52: Balanced after 4 trials
     4:40:52: Tank T1 is filling at -0.00 m
     4:40:52: Pipe p239 changed from open to temporarily closed
   
  WARNING: Negative pressures at 4:40:52 hrs.
   
     4:45:00: Balancing the network:

              Trial  1: relative flow change = 0.000708
                        maximum  flow change = 0.5511 for Link p11
                        maximum  head error  = 0.0002 for Link p11

              Pipe p239 switched from closed to open
              Trial  2: relative flow change = 0.548617
              Trial  3: relative flow change = 0.371439
              Trial  4: relative flow change = 0.178888
              Trial  5: relative flow change = 0.062345
              Trial  6: relative flow change = 0.011741
              Trial  7: relative flow change = 0.000861
                        maximum  flow change = 1.0813 for Link p13
                        maximum  head error  = 0.0008 for Link p13

     4:45:00: Balanced after 7 trials
     4:45:00: Tank T1 is emptying at 0.02 m
     4:45:00: Pipe p239 changed from temporarily closed to open
   
  WARNING: Negative pressures at 4:45:00 hrs.
   
     4:45:51: Balancing the network:

              Trial  1: relative flow change = 0.000080
                        maximum  flow change = 0.0825 for Link p240
                        maximum  head error  = 0.0000 for Link p15

              Pipe p239 switched from open to closed
              Trial  2: relative flow change = 0.256934
              Trial  3: relative flow change = 0.023775
              Trial  4: relative flow change = 0.005175
                        maximum  flow change = 6.9783 for Node n368
                        maximum  head error  = 0.0341 for Link p11

     4:45:51: Balanced after 4 trials
     4:45:51: Tank T1 is filling at 0.00 m
     4:45:51: Pipe p239 changed from open to temporarily closed
   
  WARNING: Negative pressures at 4:45:51 hrs.
   
     4:50:00: Balancing the network:

              Trial  1: relative flow change = 0.000835
                        maximum  flow change = 0.5522 for Link p11
                        maximum  head error  = 0.0002 for Link p11

              Pipe p239 switched from closed to open
              Trial  2: relative flow change = 0.548598
              Trial  3: relative flow change = 0.371416
              Trial  4: relative flow change = 0.178873
              Trial  5: relative flow change = 0.062337
              Trial  6: relative flow change = 0.011748
              Trial  7: relative flow change = 0.000867
                        maximum  flow change = 1.0970 for Link p13
                        maximum  head error  = 0.0008 for Link p13

     4:50:00: Balanced after 7 trials
     4:50:00: Tank T1 is emptying at 0.02 m
     4:50:00: Pipe p239 changed from temporarily closed to open
   
  WARNING: Negative pressures at 4:50:00 hrs.
   
     4:50:52: Balancing the network:

              Trial  1: relative flow change = 0.000082
                        maximum  flow change = 0.0841 for Link p240
                        maximum  head error  = 0.0000 for Link p15

              Pipe p239 switched from open to closed
              Trial  2: relative flow change = 0.256847
              Trial  3: relative flow change = 0.023750
              Trial  4: relative flow change = 0.005182
                        maximum  flow change = 6.9795 for Node n368
                        maximum  head error  = 0.0342 for Link p11

     4:50:52: Balanced after 4 trials
     4:50:52: Tank T1 is filling at 0.00 m
     4:50:52: Pipe p239 changed from open to temporarily closed
   
  WARNING: Negative pressures at 4:50:52 hrs.
   
     4:55:00: Balancing the network:

              Trial  1: relative flow change = 0.001008
                        maximum  flow change = 0.5536 for Link p11
                        maximum  head error  = 0.0002 for Link p11

              Pipe p239 switched from closed to open
              Trial  2: relative flow change = 0.548566
              Trial  3: relative flow change = 0.371379
              Trial  4: relative flow change = 0.178851
              Trial  5: relative flow change = 0.062326
              Trial  6: relative flow change = 0.011758
              Trial  7: relative flow change = 0.000875
                        maximum  flow change = 1.1188 for Link p251
                        maximum  head error  = 0.0008 for Link p13

     4:55:00: Balanced after 7 trials
     4:55:00: Tank T1 is emptying at 0.02 m
     4:55:00: Pipe p239 changed from temporarily closed to open
   
  WARNING: Negative pressures at 4:55:00 hrs.
   
     4:55:52: Balancing the network:

              Trial  1: relative flow change = 0.000082
                        maximum  flow change = 0.0842 for Link p239
                        maximum  head error  = 0.0000 for Link p15

              Pipe p239 switched from open to closed
              Trial  2: relative flow change = 0.256724
              Trial  3: relative flow change = 0.023716
              Trial  4: relative flow change = 0.005191
                        maximum  flow change = 6.9811 for Node n368
                        maximum  head error  = 0.0343 for Link p11

     4:55:52: Balanced after 4 trials
     4:55:52: Tank T1 is filling at -0.00 m
     4:55:52: Pipe p239 changed from open to temporarily closed
   
  WARNING: Negative pressures at 4:55:52 hrs.
   
     5:00:00: Balancing the network:

              Trial  1: relative flow change = 0.001219
                        maximum  flow change = 0.5556 for Link p11
                        maximum  head error  = 0.0002 for Link p11

              Pipe p239 switched from closed to open
              Trial  2: relative flow change = 0.548527
              Trial  3: relative flow change = 0.371340
              Trial  4: relative flow change = 0.178829
              Trial  5: relative flow change = 0.062317
              Trial  6: relative flow change = 0.011775
              Trial  7: relative flow change = 0.000885
                        maximum  flow change = 1.1493 for Link p13
                        maximum  head error  = 0.0009 for Link p13

     5:00:00: Balanced after 7 trials
     5:00:00: Tank T1 is emptying at 0.01 m
     5:00:00: Pipe p239 changed from temporarily closed to open
   
  WARNING: Negative pressures at 5:00:00 hrs.
   
     5:00:51: Balancing the network:

              Trial  1: relative flow change = 0.000081
                        maximum  flow change = 0.0827 for Link p240
                        maximum  head error  = 0.0000 for Link p15

              Pipe p239 switched from open to closed
              Trial  2: relative flow change = 0.256563
              Trial  3: relative flow change = 0.023670
              Trial  4: relative flow change = 0.005203
                        maximum  flow change = 6.9832 for Node n368
                        maximum  head error  = 0.0344 for Link p11

     5:00:51: Balanced after 4 trials
     5:00:51: Tank T1 is filling at -0.00 m
     5:00:51: Pipe p239 changed from open to temporarily closed
   
  WARNING: Negative pressures at 5:00:51 hrs.
   
     5:05:00: Balancing the network:

              Trial  1: relative flow change = 0.001481
                        maximum  flow change = 0.5581 for Link p11
                        maximum  head error  = 0.0002 for Link p11

              Pipe p239 switched from closed to open
              Trial  2: relative flow change = 0.548494
              Trial  3: relative flow change = 0.371314
              Trial  4: relative flow change = 0.178825
              Trial  5: relative flow change = 0.062316
              Trial  6: relative flow change = 0.011805
              Trial  7: relative flow change = 0.000901
                        maximum  flow change = 1.1925 for Link p251
                        maximum  head error  = 0.0010 for Link p13

     5:05:00: Balanced after 7 trials
     5:05:00: Tank T1 is emptying at 0.02 m
     5:05:00: Pipe p239 changed from temporarily closed to open
   
  WARNING: Negative pressures at 5:05:00 hrs.
   
     5:05:52: Balancing the network:

              Trial  1: relative flow change = 0.000083
                        maximum  flow change = 0.0844 for Link p239
                        maximum  head error  = 0.0000 for Link p15

              Pipe p239 switched from open to closed
              Trial  2: relative flow change = 0.256350
              Trial  3: relative flow change = 0.023611
              Trial  4: relative flow change = 0.005219
                        maximum  flow change = 6.9861 for Node n368
                        maximum  head error  = 0.0346 for Link p11

     5:05:52: Balanced after 4 trials
     5:05:52: Tank T1 is filling at -0.00 m
     5:05:52: Pipe p239 changed from open to temporarily closed
   
  WARNING: Negative pressures at 5:05:52 hrs.
   
     5:10:00: Balancing the network:

              Trial  1: relative flow change = 0.001759
                        maximum  flow change = 0.5615 for Link p11
                        maximum  head error  = 0.0002 for Link p11

              Pipe p239 switched from closed to open
              Trial  2: relative flow change = 0.548481
              Trial  3: relative flow change = 0.371320
              Trial  4: relative flow change = 0.178867
              Trial  5: relative flow change = 0.062330
              Trial  6: relative flow change = 0.011855
              Trial  7: relative flow change = 0.000923
                        maximum  flow change = 1.2532 for Link p251
                        maximum  head error  = 0.0011 for Link p13

     5:10:00: Balanced after 7 trials
     5:10:00: Tank T1 is emptying at 0.01 m
     5:10:00: Pipe p239 changed from temporarily closed to open
   
  WARNING: Negative pressures at 5:10:00 hrs.
   
     5:10:51: Balancing the network:

              Trial  1: relative flow change = 0.000082
                        maximum  flow change = 0.0830 for Link p240
                        maximum  head error  = 0.0000 for Link p13

              Pipe p239 switched from open to closed
              Trial  2: relative flow change = 0.256090
              Trial  3: relative flow change = 0.023538
              Trial  4: relative flow change = 0.005240
                        maximum  flow change = 6.9901 for Node n368
                        maximum  head error  = 0.0348 for Link p11

     5:10:51: Balanced after 4 trials
     5:10:51: Tank T1 is filling at 0.00 m
     5:10:51: Pipe p239 changed from open to temporarily closed
   
  WARNING: Negative pressures at 5:10:51 hrs.
   
     5:15:00: Balancing the network:

              Trial  1: relative flow change = 0.002066
                        maximum  flow change = 0.6405 for Link p110
                        maximum  head error  = 0.0002 for Link p11

              Pipe p239 switched from closed to open
              Trial  2: relative flow change = 0.548543
              Trial  3: relative flow change = 0.371419
              Trial  4: relative flow change = 0.178982
              Trial  5: relative flow change = 0.062459
              Trial  6: relative flow change = 0.011932
              Trial  7: relative flow change = 0.000958
                        maximum  flow change = 1.3446 for Link p251
                        maximum  head error  = 0.0012 for Link p13

     5:15:00: Balanced after 7 trials
     5:15:00: Tank T1 is emptying at 0.02 m
     5:15:00: Pipe p239 changed from temporarily closed to open
   
  WARNING: Negative pressures at 5:15:00 hrs.
   
     5:15:52: Balancing the network:

              Trial  1: relative flow change = 0.000085
                        maximum  flow change = 0.0848 for Link p239
                        maximum  head error  = 0.0000 for Link p13

              Pipe p239 switched from open to closed
              Trial  2: relative flow change = 0.255776
              Trial  3: relative flow change = 0.023450
              Trial  4: relative flow change = 0.005264
                        maximum  flow change = 7.0107 for Link p11
                        maximum  head error  = 0.0351 for Link p11

     5:15:52: Balanced after 4 trials
     5:15:52: Tank T1 is filling at -0.00 m
     5:15:52: Pipe p239 changed from open to temporarily closed
   
  WARNING: Negative pressures at 5:15:52 hrs.
   
     5:20:00: Balancing the network:

              Trial  1: relative flow change = 0.002418
                        maximum  flow change = 0.7652 for Link p110
                        maximum  head error  = 0.0002 for Link p11

              Pipe p239 switched from closed to open
              Trial  2: relative flow change = 0.548247
              Trial  3: relative flow change = 0.371105
              Trial  4: relative flow change = 0.178815
              Trial  5: relative flow change = 0.062299
              Trial  6: relative flow change = 0.011975
              Trial  7: relative flow change = 0.000970
                        maximum  flow change = 1.3297 for Link p251
                        maximum  head error  = 0.0012 for Link p13

     5:20:00: Balanced after 7 trials
     5:20:00: Tank T1 is emptying at 0.01 m
     5:20:00: Pipe p239 changed from temporarily closed to open
   
  WARNING: Negative pressures at 5:20:00 hrs.
   
     5:20:51: Balancing the network:

              Trial  1: relative flow change = 0.000083
                        maximum  flow change = 0.0834 for Link p240
                        maximum  head error  = 0.0000 for Link p13

              Pipe p239 switched from open to closed
              Trial  2: relative flow change = 0.255409
              Trial  3: relative flow change = 0.023346
              Trial  4: relative flow change = 0.005280
                        maximum  flow change = 7.0463 for Link p11
                        maximum  head error  = 0.0355 for Link p11

     5:20:51: Balanced after 4 trials
     5:20:51: Tank T1 is filling at -0.00 m
     5:20:51: Pipe p239 changed from open to temporarily closed
   
  WARNING: Negative pressures at 5:20:51 hrs.
   
     5:25:00: Balancing the network:

              Trial  1: relative flow change = 0.002800
                        maximum  flow change = 0.9043 for Link p110
                        maximum  head error  = 0.0002 for Link p11

              Pipe p239 switched from closed to open
              Trial  2: relative flow change = 0.547946
              Trial  3: relative flow change = 0.370782
              Trial  4: relative flow change = 0.178651
              Trial  5: relative flow change = 0.062172
              Trial  6: relative flow change = 0.012092
              Trial  7: relative flow change = 0.000986
                        maximum  flow change = 1.2991 for Link p13
                        maximum  head error  = 0.0011 for Link p13

     5:25:00: Balanced after 7 trials
     5:25:00: Tank T1 is emptying at 0.02 m
     5:25:00: Pipe p239 changed from temporarily closed to open
   
  WARNING: Negative pressures at 5:25:00 hrs.
   
     5:25:51: Balancing the network:

              Trial  1: relative flow change = 0.000083
                        maximum  flow change = 0.0835 for Link p239
                        maximum  head error  = 0.0000 for Link p13

              Pipe p239 switched from open to closed
              Trial  2: relative flow change = 0.254983
              Trial  3: relative flow change = 0.023223
              Trial  4: relative flow change = 0.005314
                        maximum  flow change = 7.0900 for Link p11
                        maximum  head error  = 0.0359 for Link p11

     5:25:51: Balanced after 4 trials
     5:25:51: Tank T1 is filling at 0.00 m
     5:25:51: Pipe p239 changed from open to temporarily closed
   
  WARNING: Negative pressures at 5:25:51 hrs.
   
     5:30:00: Balancing the network:

              Trial  1: relative flow change = 0.003280
                        maximum  flow change = 1.0787 for Link p110
                        maximum  head error  = 0.0003 for Link p11

              Pipe p239 switched from closed to open
              Trial  2: relative flow change = 0.547795
              Trial  3: relative flow change = 0.370616
              Trial  4: relative flow change = 0.178607
              Trial  5: relative flow change = 0.062144
              Trial  6: relative flow change = 0.012308
              Trial  7: relative flow change = 0.001018
                        maximum  flow change = 1.2849 for Link p13
                        maximum  head error  = 0.0011 for Link p13

     5:30:00: Balanced after 7 trials
     5:30:00: Tank T1 is emptying at 0.02 m
     5:30:00: Pipe p239 changed from temporarily closed to open
   
  WARNING: Negative pressures at 5:30:00 hrs.
   
     5:30:52: Balancing the network:

              Trial  1: relative flow change = 0.000085
                        maximum  flow change = 0.0853 for Link p239
                        maximum  head error  = 0.0000 for Link p13

              Pipe p239 switched from open to closed
              Trial  2: relative flow change = 0.254481
              Trial  3: relative flow change = 0.023080
              Trial  4: relative flow change = 0.005369
                        maximum  flow change = 7.1437 for Link p11
                        maximum  head error  = 0.0364 for Link p11

     5:30:52: Balanced after 4 trials
     5:30:52: Tank T1 is filling at -0.00 m
     5:30:52: Pipe p239 changed from open to temporarily closed
   
  WARNING: Negative pressures at 5:30:52 hrs.
   
     5:35:00: Balancing the network:

              Trial  1: relative flow change = 0.003883
                        maximum  flow change = 1.2991 for Link p110
                        maximum  head error  = 0.0003 for Link p11

              Pipe p239 switched from closed to open
              Trial  2: relative flow change = 0.547628
              Trial  3: relative flow change = 0.370450
              Trial  4: relative flow change = 0.178581
              Trial  5: relative flow change = 0.062121
              Trial  6: relative flow change = 0.012515
              Trial  7: relative flow change = 0.001049
                        maximum  flow change = 1.2704 for Link p251
                        maximum  head error  = 0.0011 for Link p13

     5:35:00: Balanced after 7 trials
     5:35:00: Tank T1 is emptying at 0.01 m
     5:35:00: Pipe p239 changed from temporarily closed to open
   
  WARNING: Negative pressures at 5:35:00 hrs.
   
     5:35:51: Balancing the network:

              Trial  1: relative flow change = 0.000083
                        maximum  flow change = 0.0841 for Link p239
                        maximum  head error  = 0.0000 for Link p13

              Pipe p239 switched from open to closed
              Trial  2: relative flow change = 0.253888
              Trial  3: relative flow change = 0.022910
              Trial  4: relative flow change = 0.005437
                        maximum  flow change = 7.2099 for Link p11
                        maximum  head error  = 0.0371 for Link p11

     5:35:51: Balanced after 4 trials
     5:35:51: Tank T1 is filling at 0.00 m
     5:35:51: Pipe p239 changed from open to temporarily closed
   
  WARNING: Negative pressures at 5:35:51 hrs.
   
     5:40:00: Balancing the network:

              Trial  1: relative flow change = 0.004611
                        maximum  flow change = 1.5701 for Link p110
                        maximum  head error  = 0.0003 for Link p11

              Pipe p239 switched from closed to open
              Trial  2: relative flow change = 0.546537
              Trial  3: relative flow change = 0.369316
              Trial  4: relative flow change = 0.177900
              Trial  5: relative flow change = 0.061679
              Trial  6: relative flow change = 0.012353
              Trial  7: relative flow change = 0.001020
                        maximum  flow change = 1.2065 for Link p13
                        maximum  head error  = 0.0010 for Link p13

     5:40:00: Balanced after 7 trials
     5:40:00: Tank T1 is emptying at 0.02 m
     5:40:00: Pipe p239 changed from temporarily closed to open
   
  WARNING: Negative pressures at 5:40:00 hrs.
   
     5:40:51: Balancing the network:

              Trial  1: relative flow change = 0.000082
                        maximum  flow change = 0.0840 for Link p239
                        maximum  head error  = 0.0000 for Link p15

              Pipe p239 switched from open to closed
              Trial  2: relative flow change = 0.253180
              Trial  3: relative flow change = 0.022714
              Trial  4: relative flow change = 0.005514
                        maximum  flow change = 7.2910 for Link p11
                        maximum  head error  = 0.0379 for Link p11

     5:40:51: Balanced after 4 trials
     5:40:51: Tank T1 is filling at 0.00 m
     5:40:51: Pipe p239 changed from open to temporarily closed
   
  WARNING: Negative pressures at 5:40:51 hrs.
   
     5:45:00: Balancing the network:

              Trial  1: relative flow change = 0.005446
                        maximum  flow change = 1.8865 for Link p110
                        maximum  head error  = 0.0003 for Link p11

              Pipe p239 switched from closed to open
              Trial  2: relative flow change = 0.544842
              Trial  3: relative flow change = 0.367612
              Trial  4: relative flow change = 0.176856
              Trial  5: relative flow change = 0.060978
              Trial  6: relative flow change = 0.011885
              Trial  7: relative flow change = 0.000936
                        maximum  flow change = 1.0959 for Link p251
                        maximum  head error  = 0.0008 for Link p13

     5:45:00: Balanced after 7 trials
     5:45:00: Tank T1 is emptying at 0.02 m
     5:45:00: Pipe p239 changed from temporarily closed to open
   
  WARNING: Negative pressures at 5:45:00 hrs.
   
     5:45:52: Balancing the network:

              Trial  1: relative flow change = 0.000082
                        maximum  flow change = 0.0852 for Link p240
                        maximum  head error  = 0.0000 for Link p15

              Pipe p239 switched from open to closed
              Trial  2: relative flow change = 0.252339
              Trial  3: relative flow change = 0.022599
              Trial  4: relative flow change = 0.005453
                        maximum  flow change = 7.3901 for Link p11
                        maximum  head error  = 0.0390 for Link p11

     5:45:52: Balanced after 4 trials
     5:45:52: Tank T1 is filling at -0.00 m
     5:45:52: Pipe p239 changed from open to temporarily closed
   
  WARNING: Negative pressures at 5:45:52 hrs.
   
     5:50:00: Balancing the network:

              Trial  1: relative flow change = 0.006312
                        maximum  flow change = 2.2311 for Link p110
                        maximum  head error  = 0.0003 for Link p11

              Pipe p239 switched from closed to open
              Trial  2: relative flow change = 0.542087
              Trial  3: relative flow change = 0.364750
              Trial  4: relative flow change = 0.175033
              Trial  5: relative flow change = 0.059809
              Trial  6: relative flow change = 0.011290
              Trial  7: relative flow change = 0.000804
                        maximum  flow change = 0.8895 for Link p251
                        maximum  head error  = 0.0005 for Link p13

     5:50:00: Balanced after 7 trials
     5:50:00: Tank T1 is emptying at 0.01 m
     5:50:00: Pipe p239 changed from temporarily closed to open
   
  WARNING: Negative pressures at 5:50:00 hrs.
   
     5:50:51: Balancing the network:

              Trial  1: relative flow change = 0.000078
                        maximum  flow change = 0.0829 for Link p240
                        maximum  head error  = 0.0000 for Link p15

              Pipe p239 switched from open to closed
              Trial  2: relative flow change = 0.251359
              Trial  3: relative flow change = 0.022462
              Trial  4: relative flow change = 0.005392
                        maximum  flow change = 7.5078 for Link p11
                        maximum  head error  = 0.0402 for Link p11

     5:50:51: Balanced after 4 trials
     5:50:51: Tank T1 is filling at -0.00 m
     5:50:51: Pipe p239 changed from open to temporarily closed
   
  WARNING: Negative pressures at 5:50:51 hrs.
   
     5:55:00: Balancing the network:

              Trial  1: relative flow change = 0.007155
                        maximum  flow change = 2.5714 for Link p110
                        maximum  head error  = 0.0003 for Link p11

              Pipe p239 switched from closed to open
              Trial  2: relative flow change = 0.539488
              Trial  3: relative flow change = 0.362067
              Trial  4: relative flow change = 0.173366
              Trial  5: relative flow change = 0.058780
              Trial  6: relative flow change = 0.010779
              Trial  7: relative flow change = 0.000691
                        maximum  flow change = 0.7390 for Link p29
                        maximum  head error  = 0.0003 for Link p13

     5:55:00: Balanced after 7 trials
     5:55:00: Tank T1 is emptying at 0.01 m
     5:55:00: Pipe p239 changed from temporarily closed to open
   
  WARNING: Negative pressures at 5:55:00 hrs.
   
     5:55:51: Balancing the network:

              Trial  1: relative flow change = 0.000076
                        maximum  flow change = 0.0824 for Link p239
                        maximum  head error  = 0.0000 for Link p258

              Pipe p239 switched from open to closed
              Trial  2: relative flow change = 0.250248
              Trial  3: relative flow change = 0.022312
              Trial  4: relative flow change = 0.005325
                        maximum  flow change = 7.6444 for Link p11
                        maximum  head error  = 0.0417 for Link p11

     5:55:51: Balanced after 4 trials
     5:55:51: Tank T1 is filling at -0.00 m
     5:55:51: Pipe p239 changed from open to temporarily closed
   
  WARNING: Negative pressures at 5:55:51 hrs.
   
     6:00:00: Balancing the network:

              Trial  1: relative flow change = 0.007864
                        maximum  flow change = 2.8637 for Link p110
                        maximum  head error  = 0.0003 for Link p11

              Pipe p239 switched from closed to open
              Trial  2: relative flow change = 0.537205
              Trial  3: relative flow change = 0.359801
              Trial  4: relative flow change = 0.172044
              Trial  5: relative flow change = 0.058023
              Trial  6: relative flow change = 0.010437
              Trial  7: relative flow change = 0.000611
                        maximum  flow change = 0.6568 for Link p26
                        maximum  head error  = 0.0002 for Link p29

     6:00:00: Balanced after 7 trials
     6:00:00: Tank T1 is emptying at 0.01 m
     6:00:00: Pipe p239 changed from temporarily closed to open
   
  WARNING: Negative pressures at 6:00:00 hrs.
   
     6:00:51: Balancing the network:

              Trial  1: relative flow change = 0.000075
                        maximum  flow change = 0.0822 for Link p240
                        maximum  head error  = 0.0000 for Link p258

              Pipe p239 switched from open to closed
              Trial  2: relative flow change = 0.249033
              Trial  3: relative flow change = 0.022160
              Trial  4: relative flow change = 0.005244
                        maximum  flow change = 7.7973 for Link p11
                        maximum  head error  = 0.0433 for Link p11

     6:00:51: Balanced after 4 trials
     6:00:51: Tank T1 is filling at -0.00 m
     6:00:51: Pipe p239 changed from open to temporarily closed
   
  WARNING: Negative pressures at 6:00:51 hrs.
   
     6:05:00: Balancing the network:

              Trial  1: relative flow change = 0.008356
                        maximum  flow change = 3.0767 for Link p110
                        maximum  head error  = 0.0004 for Link p11

              Pipe p239 switched from closed to open
              Trial  2: relative flow change = 0.535617
              Trial  3: relative flow change = 0.358252
              Trial  4: relative flow change = 0.171206
              Trial  5: relative flow change = 0.057582
              Trial  6: relative flow change = 0.010259
              Trial  7: relative flow change = 0.000563
                        maximum  flow change = 0.5953 for Link p26
                        maximum  head error  = 0.0002 for Link p29

     6:05:00: Balanced after 7 trials
     6:05:00: Tank T1 is emptying at 0.01 m
     6:05:00: Pipe p239 changed from temporarily closed to open
   
  WARNING: Negative pressures at 6:05:00 hrs.
   
     6:05:50: Balancing the network:

              Trial  1: relative flow change = 0.000073
                        maximum  flow change = 0.0805 for Link p240
                        maximum  head error  = 0.0000 for Link p258

              Pipe p239 switched from open to closed
              Trial  2: relative flow change = 0.247753
              Trial  3: relative flow change = 0.022012
              Trial  4: relative flow change = 0.005145
                        maximum  flow change = 7.9625 for Link p11
                        maximum  head error  = 0.0452 for Link p11

     6:05:50: Balanced after 4 trials
     6:05:50: Tank T1 is filling at 0.00 m
     6:05:50: Pipe p239 changed from open to temporarily closed
   
  WARNING: Negative pressures at 6:05:50 hrs.
   
     6:10:00: Balancing the network:

              Trial  1: relative flow change = 0.008520
                        maximum  flow change = 3.1702 for Link p110
                        maximum  head error  = 0.0004 for Link p11

              Pipe p239 switched from closed to open
              Trial  2: relative flow change = 0.534548
              Trial  3: relative flow change = 0.357300
              Trial  4: relative flow change = 0.170769
              Trial  5: relative flow change = 0.057439
              Trial  6: relative flow change = 0.010254
              Trial  7: relative flow change = 0.000541
                        maximum  flow change = 0.5561 for Link p26
                        maximum  head error  = 0.0002 for Link p29

     6:10:00: Balanced after 7 trials
     6:10:00: Tank T1 is emptying at 0.02 m
     6:10:00: Pipe p239 changed from temporarily closed to open
   
  WARNING: Negative pressures at 6:10:00 hrs.
   
     6:10:51: Balancing the network:

              Trial  1: relative flow change = 0.000074
                        maximum  flow change = 0.0822 for Link p240
                        maximum  head error  = 0.0000 for Link p258

              Pipe p239 switched from open to closed
              Trial  2: relative flow change = 0.246453
              Trial  3: relative flow change = 0.021878
              Trial  4: relative flow change = 0.005083
                        maximum  flow change = 8.1342 for Link p11
                        maximum  head error  = 0.0471 for Link p11

     6:10:51: Balanced after 4 trials
     6:10:51: Tank T1 is filling at 0.00 m
     6:10:51: Pipe p239 changed from open to temporarily closed
   
  WARNING: Negative pressures at 6:10:51 hrs.
   
     6:15:00: Balancing the network:

              Trial  1: relative flow change = 0.008370
                        maximum  flow change = 3.1414 for Link p110
                        maximum  head error  = 0.0004 for Link p11

              Pipe p239 switched from closed to open
              Trial  2: relative flow change = 0.534174
              Trial  3: relative flow change = 0.357159
              Trial  4: relative flow change = 0.170870
[...]

              Pipe p239 switched from closed to open
              Trial  2: relative flow change = 0.536626
              Trial  3: relative flow change = 0.362592
              Trial  4: relative flow change = 0.175947
              Trial  5: relative flow change = 0.062057
              Trial  6: relative flow change = 0.012899
              Trial  7: relative flow change = 0.000901
                        maximum  flow change = 0.7836 for Link p280
                        maximum  head error  = 0.0005 for Link p278

    23:05:00: Balanced after 7 trials
    23:05:00: Tank T1 is emptying at 0.02 m
    23:05:00: Pipe p239 changed from temporarily closed to open
   
  WARNING: Negative pressures at 23:05:00 hrs.
   
    23:05:50: Balancing the network:

              Trial  1: relative flow change = 0.000079
                        maximum  flow change = 0.0837 for Link p240
                        maximum  head error  = 0.0000 for Link p258

              Pipe p239 switched from open to closed
              Trial  2: relative flow change = 0.236816
              Trial  3: relative flow change = 0.020996
              Trial  4: relative flow change = 0.004669
                        maximum  flow change = 8.8410 for Link p11
                        maximum  head error  = 0.0555 for Link p11

    23:05:50: Balanced after 4 trials
    23:05:50: Tank T1 is filling at 0.00 m
    23:05:50: Pipe p239 changed from open to temporarily closed
   
  WARNING: Negative pressures at 23:05:50 hrs.
   
    23:10:00: Balancing the network:

              Trial  1: relative flow change = 0.002600
                        maximum  flow change = 0.9141 for Link p110
                        maximum  head error  = 0.0005 for Link p11

              Pipe p239 switched from closed to open
              Trial  2: relative flow change = 0.535642
              Trial  3: relative flow change = 0.361394
              Trial  4: relative flow change = 0.175070
              Trial  5: relative flow change = 0.061502
              Trial  6: relative flow change = 0.012616
              Trial  7: relative flow change = 0.000864
                        maximum  flow change = 0.7700 for Link p279
                        maximum  head error  = 0.0004 for Link p278

    23:10:00: Balanced after 7 trials
    23:10:00: Tank T1 is emptying at 0.02 m
    23:10:00: Pipe p239 changed from temporarily closed to open
   
  WARNING: Negative pressures at 23:10:00 hrs.
   
    23:10:50: Balancing the network:

              Trial  1: relative flow change = 0.000078
                        maximum  flow change = 0.0833 for Link p239
                        maximum  head error  = 0.0000 for Link p258

              Pipe p239 switched from open to closed
              Trial  2: relative flow change = 0.237144
              Trial  3: relative flow change = 0.021018
              Trial  4: relative flow change = 0.004690
                        maximum  flow change = 8.7875 for Link p11
                        maximum  head error  = 0.0548 for Link p11

    23:10:50: Balanced after 4 trials
    23:10:50: Tank T1 is filling at 0.00 m
    23:10:50: Pipe p239 changed from open to temporarily closed
   
  WARNING: Negative pressures at 23:10:50 hrs.
   
    23:15:00: Balancing the network:

              Trial  1: relative flow change = 0.002649
                        maximum  flow change = 0.9359 for Link p110
                        maximum  head error  = 0.0005 for Link p11

              Pipe p239 switched from closed to open
              Trial  2: relative flow change = 0.534695
              Trial  3: relative flow change = 0.360244
              Trial  4: relative flow change = 0.174225
              Trial  5: relative flow change = 0.060956
              Trial  6: relative flow change = 0.012339
              Trial  7: relative flow change = 0.000824
                        maximum  flow change = 0.7435 for Link p278
                        maximum  head error  = 0.0004 for Link p278

    23:15:00: Balanced after 7 trials
    23:15:00: Tank T1 is emptying at 0.02 m
    23:15:00: Pipe p239 changed from temporarily closed to open
   
  WARNING: Negative pressures at 23:15:00 hrs.
   
    23:15:51: Balancing the network:

              Trial  1: relative flow change = 0.000079
                        maximum  flow change = 0.0845 for Link p240
                        maximum  head error  = 0.0000 for Link p258

              Pipe p239 switched from open to closed
              Trial  2: relative flow change = 0.237482
              Trial  3: relative flow change = 0.021042
              Trial  4: relative flow change = 0.004711
                        maximum  flow change = 8.7343 for Link p11
                        maximum  head error  = 0.0542 for Link p11

    23:15:51: Balanced after 4 trials
    23:15:51: Tank T1 is filling at -0.00 m
    23:15:51: Pipe p239 changed from open to temporarily closed
   
  WARNING: Negative pressures at 23:15:51 hrs.
   
    23:20:00: Balancing the network:

              Trial  1: relative flow change = 0.002611
                        maximum  flow change = 0.9213 for Link p110
                        maximum  head error  = 0.0005 for Link p11

              Pipe p239 switched from closed to open
              Trial  2: relative flow change = 0.533535
              Trial  3: relative flow change = 0.358867
              Trial  4: relative flow change = 0.173225
              Trial  5: relative flow change = 0.060275
              Trial  6: relative flow change = 0.012003
              Trial  7: relative flow change = 0.000763
                        maximum  flow change = 0.6687 for Link p280
                        maximum  head error  = 0.0003 for Link p278

    23:20:00: Balanced after 7 trials
    23:20:00: Tank T1 is emptying at 0.01 m
    23:20:00: Pipe p239 changed from temporarily closed to open
   
  WARNING: Negative pressures at 23:20:00 hrs.
   
    23:20:49: Balancing the network:

              Trial  1: relative flow change = 0.000075
                        maximum  flow change = 0.0809 for Link p239
                        maximum  head error  = 0.0000 for Link p258

              Pipe p239 switched from open to closed
              Trial  2: relative flow change = 0.237822
              Trial  3: relative flow change = 0.021067
              Trial  4: relative flow change = 0.004732
                        maximum  flow change = 8.6828 for Link p11
                        maximum  head error  = 0.0536 for Link p11

    23:20:49: Balanced after 4 trials
    23:20:49: Tank T1 is filling at 0.00 m
    23:20:49: Pipe p239 changed from open to temporarily closed
   
  WARNING: Negative pressures at 23:20:49 hrs.
   
    23:25:00: Balancing the network:

              Trial  1: relative flow change = 0.002533
                        maximum  flow change = 0.8906 for Link p110
                        maximum  head error  = 0.0005 for Link p11

              Pipe p239 switched from closed to open
              Trial  2: relative flow change = 0.532599
              Trial  3: relative flow change = 0.357744
              Trial  4: relative flow change = 0.172394
              Trial  5: relative flow change = 0.059727
              Trial  6: relative flow change = 0.011723
              Trial  7: relative flow change = 0.000715
                        maximum  flow change = 0.6090 for Link p280
                        maximum  head error  = 0.0003 for Link p278

    23:25:00: Balanced after 7 trials
    23:25:00: Tank T1 is emptying at 0.02 m
    23:25:00: Pipe p239 changed from temporarily closed to open
   
  WARNING: Negative pressures at 23:25:00 hrs.
   
    23:25:51: Balancing the network:

              Trial  1: relative flow change = 0.000076
                        maximum  flow change = 0.0838 for Link p239
                        maximum  head error  = 0.0000 for Link p258

              Pipe p239 switched from open to closed
              Trial  2: relative flow change = 0.238154
              Trial  3: relative flow change = 0.021093
              Trial  4: relative flow change = 0.004753
                        maximum  flow change = 8.6350 for Link p11
                        maximum  head error  = 0.0530 for Link p11

    23:25:51: Balanced after 4 trials
    23:25:51: Tank T1 is filling at -0.00 m
    23:25:51: Pipe p239 changed from open to temporarily closed
   
  WARNING: Negative pressures at 23:25:51 hrs.
   
    23:30:00: Balancing the network:

              Trial  1: relative flow change = 0.002485
                        maximum  flow change = 0.8723 for Link p110
                        maximum  head error  = 0.0005 for Link p11

              Pipe p239 switched from closed to open
              Trial  2: relative flow change = 0.531839
              Trial  3: relative flow change = 0.356817
              Trial  4: relative flow change = 0.171698
              Trial  5: relative flow change = 0.059271
              Trial  6: relative flow change = 0.011484
              Trial  7: relative flow change = 0.000679
                        maximum  flow change = 0.5615 for Link p278
                        maximum  head error  = 0.0002 for Link p278

    23:30:00: Balanced after 7 trials
    23:30:00: Tank T1 is emptying at 0.01 m
    23:30:00: Pipe p239 changed from temporarily closed to open
   
  WARNING: Negative pressures at 23:30:00 hrs.
   
    23:30:50: Balancing the network:

              Trial  1: relative flow change = 0.000074
                        maximum  flow change = 0.0819 for Link p240
                        maximum  head error  = 0.0000 for Link p258

              Pipe p239 switched from open to closed
              Trial  2: relative flow change = 0.238485
              Trial  3: relative flow change = 0.021119
              Trial  4: relative flow change = 0.004773
                        maximum  flow change = 8.5894 for Link p11
                        maximum  head error  = 0.0524 for Link p11

    23:30:50: Balanced after 4 trials
    23:30:50: Tank T1 is filling at -0.00 m
    23:30:50: Pipe p239 changed from open to temporarily closed
   
  WARNING: Negative pressures at 23:30:50 hrs.
   
    23:35:00: Balancing the network:

              Trial  1: relative flow change = 0.002468
                        maximum  flow change = 0.8680 for Link p110
                        maximum  head error  = 0.0005 for Link p11

              Pipe p239 switched from closed to open
              Trial  2: relative flow change = 0.531203
              Trial  3: relative flow change = 0.356026
              Trial  4: relative flow change = 0.171095
              Trial  5: relative flow change = 0.058872
              Trial  6: relative flow change = 0.011277
              Trial  7: relative flow change = 0.000651
                        maximum  flow change = 0.5318 for Link p29
                        maximum  head error  = 0.0002 for Link p278

    23:35:00: Balanced after 7 trials
    23:35:00: Tank T1 is emptying at 0.01 m
    23:35:00: Pipe p239 changed from temporarily closed to open
   
  WARNING: Negative pressures at 23:35:00 hrs.
   
    23:35:50: Balancing the network:

              Trial  1: relative flow change = 0.000074
                        maximum  flow change = 0.0817 for Link p239
                        maximum  head error  = 0.0000 for Link p258

              Pipe p239 switched from open to closed
              Trial  2: relative flow change = 0.238818
              Trial  3: relative flow change = 0.021147
              Trial  4: relative flow change = 0.004794
                        maximum  flow change = 8.5452 for Link p11
                        maximum  head error  = 0.0519 for Link p11

    23:35:50: Balanced after 4 trials
    23:35:50: Tank T1 is filling at 0.00 m
    23:35:50: Pipe p239 changed from open to temporarily closed
   
  WARNING: Negative pressures at 23:35:50 hrs.
   
    23:40:00: Balancing the network:

              Trial  1: relative flow change = 0.002534
                        maximum  flow change = 0.8975 for Link p110
                        maximum  head error  = 0.0005 for Link p11

              Pipe p239 switched from closed to open
              Trial  2: relative flow change = 0.530649
              Trial  3: relative flow change = 0.355318
              Trial  4: relative flow change = 0.170546
              Trial  5: relative flow change = 0.058504
              Trial  6: relative flow change = 0.011093
              Trial  7: relative flow change = 0.000627
                        maximum  flow change = 0.5281 for Link p29
                        maximum  head error  = 0.0002 for Link p278

    23:40:00: Balanced after 7 trials
    23:40:00: Tank T1 is emptying at 0.02 m
    23:40:00: Pipe p239 changed from temporarily closed to open
   
  WARNING: Negative pressures at 23:40:00 hrs.
   
    23:40:50: Balancing the network:

              Trial  1: relative flow change = 0.000073
                        maximum  flow change = 0.0816 for Link p240
                        maximum  head error  = 0.0000 for Link p258

              Pipe p239 switched from open to closed
              Trial  2: relative flow change = 0.239167
              Trial  3: relative flow change = 0.021176
              Trial  4: relative flow change = 0.004815
                        maximum  flow change = 8.5005 for Link p11
                        maximum  head error  = 0.0514 for Link p11

    23:40:50: Balanced after 4 trials
    23:40:50: Tank T1 is filling at 0.00 m
    23:40:50: Pipe p239 changed from open to temporarily closed
   
  WARNING: Negative pressures at 23:40:50 hrs.
   
    23:45:00: Balancing the network:

              Trial  1: relative flow change = 0.002646
                        maximum  flow change = 0.9447 for Link p110
                        maximum  head error  = 0.0005 for Link p11

              Pipe p239 switched from closed to open
              Trial  2: relative flow change = 0.530167
              Trial  3: relative flow change = 0.354681
              Trial  4: relative flow change = 0.170041
              Trial  5: relative flow change = 0.058161
              Trial  6: relative flow change = 0.010923
              Trial  7: relative flow change = 0.000606
                        maximum  flow change = 0.5256 for Link p26
                        maximum  head error  = 0.0002 for Link p13

    23:45:00: Balanced after 7 trials
    23:45:00: Tank T1 is emptying at 0.02 m
    23:45:00: Pipe p239 changed from temporarily closed to open
   
  WARNING: Negative pressures at 23:45:00 hrs.
   
    23:45:51: Balancing the network:

              Trial  1: relative flow change = 0.000074
                        maximum  flow change = 0.0830 for Link p240
                        maximum  head error  = 0.0000 for Link p258

              Pipe p239 switched from open to closed
              Trial  2: relative flow change = 0.239536
              Trial  3: relative flow change = 0.021209
              Trial  4: relative flow change = 0.004835
                        maximum  flow change = 8.4544 for Link p11
                        maximum  head error  = 0.0508 for Link p11

    23:45:51: Balanced after 4 trials
    23:45:51: Tank T1 is filling at -0.00 m
    23:45:51: Pipe p239 changed from open to temporarily closed
   
  WARNING: Negative pressures at 23:45:51 hrs.
   
    23:50:00: Balancing the network:

              Trial  1: relative flow change = 0.002780
                        maximum  flow change = 0.9990 for Link p110
                        maximum  head error  = 0.0004 for Link p11

              Pipe p239 switched from closed to open
              Trial  2: relative flow change = 0.529744
              Trial  3: relative flow change = 0.354103
              Trial  4: relative flow change = 0.169571
              Trial  5: relative flow change = 0.057839
              Trial  6: relative flow change = 0.010764
              Trial  7: relative flow change = 0.000588
                        maximum  flow change = 0.5242 for Link p29
                        maximum  head error  = 0.0002 for Link p29

    23:50:00: Balanced after 7 trials
    23:50:00: Tank T1 is emptying at 0.01 m
    23:50:00: Pipe p239 changed from temporarily closed to open
   
  WARNING: Negative pressures at 23:50:00 hrs.
   
    23:50:50: Balancing the network:

              Trial  1: relative flow change = 0.000073
                        maximum  flow change = 0.0812 for Link p240
                        maximum  head error  = 0.0000 for Link p258

              Pipe p239 switched from open to closed
              Trial  2: relative flow change = 0.239932
              Trial  3: relative flow change = 0.021244
              Trial  4: relative flow change = 0.004857
                        maximum  flow change = 8.4058 for Link p11
                        maximum  head error  = 0.0502 for Link p11

    23:50:50: Balanced after 4 trials
    23:50:50: Tank T1 is filling at -0.00 m
    23:50:50: Pipe p239 changed from open to temporarily closed
   
  WARNING: Negative pressures at 23:50:50 hrs.
   
    23:55:00: Balancing the network:

              Trial  1: relative flow change = 0.002911
                        maximum  flow change = 1.0521 for Link p110
                        maximum  head error  = 0.0004 for Link p11

              Pipe p239 switched from closed to open
              Trial  2: relative flow change = 0.529584
              Trial  3: relative flow change = 0.353576
              Trial  4: relative flow change = 0.169158
              Trial  5: relative flow change = 0.057539
              Trial  6: relative flow change = 0.010617
              Trial  7: relative flow change = 0.000572
                        maximum  flow change = 0.5242 for Link p26
                        maximum  head error  = 0.0002 for Link p29

    23:55:00: Balanced after 7 trials
    23:55:00: Tank T1 is emptying at 0.01 m
    23:55:00: Pipe p239 changed from temporarily closed to open
   
  WARNING: Negative pressures at 23:55:00 hrs.
   
    23:55:50: Balancing the network:

              Trial  1: relative flow change = 0.000072
                        maximum  flow change = 0.0811 for Link p240
                        maximum  head error  = 0.0000 for Link p258

              Pipe p239 switched from open to closed
              Trial  2: relative flow change = 0.240352
              Trial  3: relative flow change = 0.021283
              Trial  4: relative flow change = 0.004880
                        maximum  flow change = 8.3552 for Link p11
                        maximum  head error  = 0.0497 for Link p11

    23:55:50: Balanced after 4 trials
    23:55:50: Tank T1 is filling at 0.00 m
    23:55:50: Pipe p239 changed from open to temporarily closed
   
  WARNING: Negative pressures at 23:55:50 hrs.
   
    24:00:00: Balancing the network:

              Trial  1: relative flow change = 0.003021
                        maximum  flow change = 1.0951 for Link p110
                        maximum  head error  = 0.0004 for Link p11

              Pipe p239 switched from closed to open
              Trial  2: relative flow change = 0.529449
              Trial  3: relative flow change = 0.353119
              Trial  4: relative flow change = 0.168800
              Trial  5: relative flow change = 0.057266
              Trial  6: relative flow change = 0.010484
              Trial  7: relative flow change = 0.000560
                        maximum  flow change = 0.5255 for Link p29
                        maximum  head error  = 0.0002 for Link p29

    24:00:00: Balanced after 7 trials
    24:00:00: Tank T1 is emptying at 0.02 m
    24:00:00: Pipe p239 changed from temporarily closed to open
   
  WARNING: Negative pressures at 24:00:00 hrs.
   
  Analysis ended Thu Jan 08 19:06:05 2026
