  Page 1                                    Thu Dec 18 21:15:55 2025

  ******************************************************************
  *                           E P A N E T                          *
  *                   Hydraulic and Water Quality                  *
  *                   Analysis for Pipe Networks                   *
  *                         Version 2.2                            *
  ******************************************************************
  
  Analysis begun Thu Dec 18 21:15:55 2025

   
  Hydraulic Status:
  -----------------------------------------------------------------------
     0:00:00: Balanced after 5 trials
     0:00:00: Reservoir River is emptying
     0:00:00: Reservoir Lake is closed
     0:00:00: Tank 1 is filling at 13.10 ft
     0:00:00: Tank 2 is emptying at 23.50 ft
     0:00:00: Tank 3 is filling at 29.00 ft
   
     0:15:00: Balanced after 2 trials
   
     0:30:00: Balanced after 2 trials
   
     0:45:00: Balanced after 2 trials
   
     1:00:00: Pump 10 changed by timer control
     1:00:00: Balanced after 7 trials
     1:00:00: Reservoir Lake is emptying
     1:00:00: Pump 10 changed from closed to open
   
     1:15:00: Balanced after 2 trials
   
     1:30:00: Balanced after 2 trials
   
     1:45:00: Balanced after 2 trials
   
     2:00:00: Balanced after 3 trials
     2:00:00: Tank 2 is filling at 21.21 ft
   
     2:15:00: Balanced after 2 trials
   
     2:30:00: Balanced after 2 trials
   
     2:45:00: Balanced after 2 trials
   
     3:00:00: Balanced after 2 trials
   
     3:15:00: Balanced after 2 trials
   
     3:30:00: Balanced after 2 trials
   
     3:45:00: Balanced after 2 trials
   
     4:00:00: Balanced after 3 trials
   
     4:15:00: Balanced after 2 trials
   
     4:16:05: Pump 335 changed by Tank 1 control
     4:16:05: Pipe 330 changed by Tank 1 control
     4:16:05: Balanced after 4 trials
     4:16:05: Pipe 330 changed from closed to open
     4:16:05: Pump 335 changed from open to closed
   
     4:31:05: Balanced after 2 trials
   
     4:46:05: Balanced after 2 trials
   
     5:00:00: Balanced after 3 trials
     5:00:00: Tank 3 is emptying at 34.34 ft
   
     5:15:00: Balanced after 2 trials
   
     5:30:00: Balanced after 2 trials
   
     5:45:00: Balanced after 2 trials
   
     6:00:00: Balanced after 3 trials
     6:00:00: Tank 3 is filling at 34.18 ft
   
     6:15:00: Balanced after 2 trials
   
     6:30:00: Balanced after 2 trials
   
     6:45:00: Balanced after 2 trials
   
     7:00:00: Balanced after 3 trials
   
     7:15:00: Balanced after 1 trials
   
     7:30:00: Balanced after 1 trials
   
     7:45:00: Balanced after 1 trials
   
     8:00:00: Balanced after 2 trials
   
     8:15:00: Balanced after 2 trials
   
     8:30:00: Balanced after 2 trials
   
     8:45:00: Balanced after 2 trials
   
     9:00:00: Balanced after 3 trials
     9:00:00: Tank 3 is emptying at 35.19 ft
   
     9:15:00: Balanced after 2 trials
   
     9:30:00: Balanced after 2 trials
   
     9:45:00: Balanced after 2 trials
     9:45:00: Tank 1 is emptying at 22.16 ft
   
    10:00:00: Balanced after 2 trials
    10:00:00: Tank 1 is filling at 22.15 ft
   
    10:15:00: Balanced after 2 trials
   
    10:30:00: Balanced after 2 trials
    10:30:00: Tank 1 is emptying at 22.16 ft
   
    10:45:00: Balanced after 2 trials
   
    11:00:00: Balanced after 3 trials
    11:00:00: Tank 2 is emptying at 27.66 ft
   
    11:15:00: Balanced after 2 trials
   
    11:30:00: Balanced after 2 trials
   
    11:45:00: Balanced after 2 trials
   
    12:00:00: Balanced after 2 trials
    12:00:00: Tank 2 is filling at 27.58 ft
   
    12:15:00: Balanced after 2 trials
   
    12:30:00: Balanced after 2 trials
    12:30:00: Tank 2 is emptying at 27.59 ft
   
    12:45:00: Balanced after 2 trials
   
    13:00:00: Balanced after 3 trials
    13:00:00: Tank 1 is filling at 21.72 ft
    13:00:00: Tank 2 is filling at 27.59 ft
   
    13:15:00: Balanced after 2 trials
   
    13:30:00: Balanced after 2 trials
    13:30:00: Tank 1 is emptying at 21.73 ft
   
    13:45:00: Balanced after 2 trials
   
    14:00:00: Balanced after 3 trials
    14:00:00: Tank 1 is filling at 21.71 ft
   
    14:15:00: Balanced after 2 trials
   
    14:30:00: Balanced after 2 trials
   
    14:45:00: Balanced after 2 trials
   
    15:00:00: Pump 10 changed by timer control
    15:00:00: Balanced after 5 trials
    15:00:00: Reservoir Lake is closed
    15:00:00: Tank 1 is emptying at 21.93 ft
    15:00:00: Tank 2 is emptying at 28.13 ft
    15:00:00: Pump 10 changed from open to closed
   
    15:15:00: Balanced after 2 trials
   
    15:30:00: Balanced after 2 trials
   
    15:45:00: Balanced after 2 trials
   
    16:00:00: Balanced after 3 trials
   
    16:15:00: Balanced after 2 trials
   
    16:30:00: Balanced after 2 trials
   
    16:45:00: Balanced after 2 trials
   
    17:00:00: Balanced after 2 trials
   
    17:15:00: Balanced after 2 trials
   
    17:30:00: Balanced after 2 trials
   
    17:45:00: Balanced after 2 trials
   
    18:00:00: Balanced after 2 trials
    18:00:00: Tank 2 is filling at 27.59 ft
   
    18:15:00: Balanced after 2 trials
    18:15:00: Tank 2 is emptying at 27.60 ft
   
    18:30:00: Balanced after 2 trials
   
    18:45:00: Balanced after 2 trials
   
    19:00:00: Balanced after 2 trials
   
    19:15:00: Balanced after 2 trials
   
    19:30:00: Balanced after 2 trials
   
    19:45:00: Balanced after 2 trials
   
    20:00:00: Balanced after 3 trials
   
    20:15:00: Balanced after 2 trials
   
    20:30:00: Balanced after 2 trials
   
    20:45:00: Balanced after 2 trials
   
    21:00:00: Balanced after 3 trials
   
    21:15:00: Balanced after 2 trials
   
    21:23:33: Pump 335 changed by Tank 1 control
    21:23:33: Pipe 330 changed by Tank 1 control
    21:23:33: Balanced after 5 trials
    21:23:33: Tank 1 is filling at 17.10 ft
    21:23:33: Tank 3 is filling at 29.69 ft
    21:23:33: Pipe 330 changed from open to closed
    21:23:33: Pump 335 changed from closed to open
   
    21:38:33: Balanced after 2 trials
   
    21:53:33: Balanced after 2 trials
   
    22:00:00: Balanced after 3 trials
    22:00:00: Tank 1 is emptying at 17.28 ft
   
    22:15:00: Balanced after 2 trials
   
    22:30:00: Balanced after 2 trials
   
    22:45:00: Balanced after 2 trials
   
    23:00:00: Balanced after 3 trials
   
    23:15:00: Balanced after 2 trials
   
    23:30:00: Balanced after 2 trials
   
    23:45:00: Balanced after 2 trials
   
    24:00:00: Balanced after 3 trials
    24:00:00: Tank 1 is filling at 15.88 ft
   
  Water Quality Mass Balance (mg)
  ================================
  Initial Mass:       0.00000e+00
  Mass Inflow:        3.70201e+07
  Mass Outflow:       3.23152e+07
  Mass Reacted:       0.00000e+00
  Final Mass:         4.70484e+06
  Mass Ratio:         1.00000
  ================================

  Analysis ended Thu Dec 18 21:15:55 2025
